# generated using pymatgen
data_PrNiGe3
_symmetry_space_group_name_H-M   'P 1'
_cell_length_a   11.18504253
_cell_length_b   11.18504253
_cell_length_c   4.20152300
_cell_angle_alpha   90.00000000
_cell_angle_beta   90.00000000
_cell_angle_gamma   158.48586223
_symmetry_Int_Tables_number   1
_chemical_formula_structural   PrNiGe3
_chemical_formula_sum   'Pr2 Ni2 Ge6'
_cell_volume   192.76554329
_cell_formula_units_Z   2
loop_
 _symmetry_equiv_pos_site_id
 _symmetry_equiv_pos_as_xyz
  1  'x, y, z'
loop_
 _atom_site_type_symbol
 _atom_site_label
 _atom_site_symmetry_multiplicity
 _atom_site_fract_x
 _atom_site_fract_y
 _atom_site_fract_z
 _atom_site_occupancy
  Pr  Pr0  1  0.66866600  0.33133400  0.50000000  1
  Pr  Pr1  1  0.33133400  0.66866600  0.50000000  1
  Ni  Ni2  1  0.89153000  0.10847000  0.00000000  1
  Ni  Ni3  1  0.10847000  0.89153000  0.00000000  1
  Ge  Ge4  1  0.44332700  0.55667300  0.00000000  1
  Ge  Ge5  1  0.55667300  0.44332700  0.00000000  1
  Ge  Ge6  1  0.05667500  0.94332500  0.50000000  1
  Ge  Ge7  1  0.94332500  0.05667500  0.50000000  1
  Ge  Ge8  1  0.21589600  0.78410400  0.00000000  1
  Ge  Ge9  1  0.78410400  0.21589600  0.00000000  1
