# generated using pymatgen
data_Nd4Mn(NiO4)3
_symmetry_space_group_name_H-M   'P 1'
_cell_length_a   5.44383700
_cell_length_b   5.53575600
_cell_length_c   7.71551102
_cell_angle_alpha   90.17431835
_cell_angle_beta   90.04387311
_cell_angle_gamma   90.14609221
_symmetry_Int_Tables_number   1
_chemical_formula_structural   Nd4Mn(NiO4)3
_chemical_formula_sum   'Nd4 Mn1 Ni3 O12'
_cell_volume   232.51083516
_cell_formula_units_Z   1
loop_
 _symmetry_equiv_pos_site_id
 _symmetry_equiv_pos_as_xyz
  1  'x, y, z'
loop_
 _atom_site_type_symbol
 _atom_site_label
 _atom_site_symmetry_multiplicity
 _atom_site_fract_x
 _atom_site_fract_y
 _atom_site_fract_z
 _atom_site_occupancy
  Nd  Nd0  1  0.51094200  0.54667000  0.25280100  1
  Nd  Nd1  1  0.98933900  0.04988700  0.25219000  1
  Nd  Nd2  1  0.48905800  0.45333000  0.74719900  1
  Nd  Nd3  1  0.01066100  0.95011300  0.74781000  1
  Mn  Mn4  1  0.50000000  0.00000000  0.00000000  1
  Ni  Ni5  1  0.00000000  0.50000000  0.00000000  1
  Ni  Ni6  1  0.50000000  0.00000000  0.50000000  1
  Ni  Ni7  1  0.00000000  0.50000000  0.50000000  1
  O  O8  1  0.78152300  0.79658600  0.04317300  1
  O  O9  1  0.71798600  0.29302500  0.45684400  1
  O  O10  1  0.20646900  0.21700200  0.54392300  1
  O  O11  1  0.29767700  0.71767200  0.95514400  1
  O  O12  1  0.21847700  0.20341400  0.95682700  1
  O  O13  1  0.28201400  0.70697500  0.54315600  1
  O  O14  1  0.79353100  0.78299800  0.45607700  1
  O  O15  1  0.70232300  0.28232800  0.04485600  1
  O  O16  1  0.41896600  0.98169900  0.24365300  1
  O  O17  1  0.08228300  0.48131700  0.25563100  1
  O  O18  1  0.58103400  0.01830100  0.75634700  1
  O  O19  1  0.91771700  0.51868300  0.74436900  1
