# generated using pymatgen
data_PuB4Ru
_symmetry_space_group_name_H-M   'P 1'
_cell_length_a   5.98157316
_cell_length_b   5.98157316
_cell_length_c   3.52671800
_cell_angle_alpha   90.00000000
_cell_angle_beta   90.00000000
_cell_angle_gamma   104.04030614
_symmetry_Int_Tables_number   1
_chemical_formula_structural   PuB4Ru
_chemical_formula_sum   'Pu2 B8 Ru2'
_cell_volume   122.41352482
_cell_formula_units_Z   2
loop_
 _symmetry_equiv_pos_site_id
 _symmetry_equiv_pos_as_xyz
  1  'x, y, z'
loop_
 _atom_site_type_symbol
 _atom_site_label
 _atom_site_symmetry_multiplicity
 _atom_site_fract_x
 _atom_site_fract_y
 _atom_site_fract_z
 _atom_site_occupancy
  Pu  Pu0  1  0.29989600  0.70010400  0.00000000  1
  Pu  Pu1  1  0.70010400  0.29989600  0.00000000  1
  B  B2  1  0.38081000  0.06515500  0.50000000  1
  B  B3  1  0.61919000  0.93484500  0.50000000  1
  B  B4  1  0.06515500  0.38081000  0.50000000  1
  B  B5  1  0.93484500  0.61919000  0.50000000  1
  B  B6  1  0.37670500  0.37670500  0.50000000  1
  B  B7  1  0.62329500  0.62329500  0.50000000  1
  B  B8  1  0.09197200  0.90802800  0.50000000  1
  B  B9  1  0.90802800  0.09197200  0.50000000  1
  Ru  Ru10  1  0.18287100  0.18287100  0.00000000  1
  Ru  Ru11  1  0.81712900  0.81712900  0.00000000  1
