# generated using pymatgen
data_Na5Ca2Fe3(PO4)6
_symmetry_space_group_name_H-M   'P 1'
_cell_length_a   6.57443200
_cell_length_b   8.84173509
_cell_length_c   9.06218977
_cell_angle_alpha   91.24852219
_cell_angle_beta   107.32149296
_cell_angle_gamma   106.56263114
_symmetry_Int_Tables_number   1
_chemical_formula_structural   Na5Ca2Fe3(PO4)6
_chemical_formula_sum   'Na5 Ca2 Fe3 P6 O24'
_cell_volume   478.73815638
_cell_formula_units_Z   1
loop_
 _symmetry_equiv_pos_site_id
 _symmetry_equiv_pos_as_xyz
  1  'x, y, z'
loop_
 _atom_site_type_symbol
 _atom_site_label
 _atom_site_symmetry_multiplicity
 _atom_site_fract_x
 _atom_site_fract_y
 _atom_site_fract_z
 _atom_site_occupancy
  Na  Na0  1  0.74328300  0.02154000  0.98146400  1
  Na  Na1  1  0.25317500  0.97344000  0.02068600  1
  Na  Na2  1  0.51329900  0.51389300  0.48966500  1
  Na  Na3  1  0.99277600  0.50241800  0.49794300  1
  Na  Na4  1  0.76423700  0.73125700  0.27160400  1
  Ca  Ca5  1  0.32360200  0.90649800  0.61284500  1
  Ca  Ca6  1  0.25429400  0.27665900  0.73098800  1
  Fe  Fe7  1  0.14156500  0.38135200  0.06505100  1
  Fe  Fe8  1  0.64005400  0.06236500  0.38591200  1
  Fe  Fe9  1  0.84962900  0.61543700  0.92890600  1
  P  P10  1  0.75121100  0.27897800  0.72490900  1
  P  P11  1  0.25000900  0.71732200  0.25852100  1
  P  P12  1  0.36673100  0.65272800  0.87186300  1
  P  P13  1  0.13670600  0.14838300  0.34583400  1
  P  P14  1  0.63315500  0.34231800  0.14224000  1
  P  P15  1  0.86914900  0.86818700  0.66101100  1
  O  O16  1  0.54337800  0.16152300  0.74846600  1
  O  O17  1  0.96370200  0.25912300  0.84845300  1
  O  O18  1  0.46559700  0.84838600  0.25515000  1
  O  O19  1  0.05020300  0.74540600  0.12853900  1
  O  O20  1  0.16786100  0.57716200  0.93787000  1
  O  O21  1  0.32707600  0.06871200  0.39082600  1
  O  O22  1  0.81962800  0.40336400  0.06032800  1
  O  O23  1  0.66888600  0.93119000  0.57925100  1
  O  O24  1  0.59107700  0.64083500  0.98633700  1
  O  O25  1  0.91613200  0.02481100  0.35203100  1
  O  O26  1  0.40009400  0.32724600  0.01678100  1
  O  O27  1  0.08847300  0.00793500  0.69900100  1
  O  O28  1  0.77942600  0.25328800  0.56192800  1
  O  O29  1  0.73021500  0.45029500  0.74214300  1
  O  O30  1  0.19929800  0.72010800  0.41149300  1
  O  O31  1  0.28768100  0.55273100  0.23575200  1
  O  O32  1  0.31463000  0.55649500  0.71405200  1
  O  O33  1  0.19693800  0.29721400  0.46018000  1
  O  O34  1  0.67979000  0.45348500  0.28639000  1
  O  O35  1  0.87076200  0.72980800  0.55734700  1
  O  O36  1  0.38738900  0.82964800  0.86127900  1
  O  O37  1  0.09820900  0.18585300  0.17270900  1
  O  O38  1  0.62005700  0.16835600  0.18159000  1
  O  O39  1  0.85062100  0.81424700  0.82266400  1
