# generated using pymatgen
data_Ho4SiGe3
_symmetry_space_group_name_H-M   'P 1'
_cell_length_a   3.92251800
_cell_length_b   4.26819000
_cell_length_c   10.63849100
_cell_angle_alpha   90.00000000
_cell_angle_beta   90.00000000
_cell_angle_gamma   90.00000000
_symmetry_Int_Tables_number   1
_chemical_formula_structural   Ho4SiGe3
_chemical_formula_sum   'Ho4 Si1 Ge3'
_cell_volume   178.11017061
_cell_formula_units_Z   1
loop_
 _symmetry_equiv_pos_site_id
 _symmetry_equiv_pos_as_xyz
  1  'x, y, z'
loop_
 _atom_site_type_symbol
 _atom_site_label
 _atom_site_symmetry_multiplicity
 _atom_site_fract_x
 _atom_site_fract_y
 _atom_site_fract_z
 _atom_site_occupancy
  Ho  Ho0  1  0.00000000  0.00000000  0.14018000  1
  Ho  Ho1  1  0.00000000  0.50000000  0.63790000  1
  Ho  Ho2  1  0.50000000  0.50000000  0.36185400  1
  Ho  Ho3  1  0.50000000  0.00000000  0.86092100  1
  Si  Si4  1  0.00000000  0.00000000  0.41733200  1
  Ge  Ge5  1  0.00000000  0.50000000  0.91492300  1
  Ge  Ge6  1  0.50000000  0.50000000  0.08483600  1
  Ge  Ge7  1  0.50000000  0.00000000  0.58205400  1
