# generated using pymatgen
data_Zr6Al16Co7
_symmetry_space_group_name_H-M   'P 1'
_cell_length_a   8.51438117
_cell_length_b   8.51438117
_cell_length_c   8.51438117
_cell_angle_alpha   60.00000000
_cell_angle_beta   60.00000000
_cell_angle_gamma   60.00000000
_symmetry_Int_Tables_number   1
_chemical_formula_structural   Zr6Al16Co7
_chemical_formula_sum   'Zr6 Al16 Co7'
_cell_volume   436.45981835
_cell_formula_units_Z   1
loop_
 _symmetry_equiv_pos_site_id
 _symmetry_equiv_pos_as_xyz
  1  'x, y, z'
loop_
 _atom_site_type_symbol
 _atom_site_label
 _atom_site_symmetry_multiplicity
 _atom_site_fract_x
 _atom_site_fract_y
 _atom_site_fract_z
 _atom_site_occupancy
  Zr  Zr0  1  0.69523545  0.30476455  0.30476455  1
  Zr  Zr1  1  0.69523545  0.30476455  0.69523545  1
  Zr  Zr2  1  0.69523545  0.69523545  0.30476455  1
  Zr  Zr3  1  0.30476455  0.69523545  0.69523545  1
  Zr  Zr4  1  0.30476455  0.69523545  0.30476455  1
  Zr  Zr5  1  0.30476455  0.30476455  0.69523545  1
  Al  Al6  1  0.64444968  0.11851677  0.11851677  1
  Al  Al7  1  0.11851677  0.64444968  0.11851677  1
  Al  Al8  1  0.11851677  0.11851677  0.64444968  1
  Al  Al9  1  0.11851677  0.11851677  0.11851677  1
  Al  Al10  1  0.35555032  0.88148323  0.88148323  1
  Al  Al11  1  0.88148323  0.35555032  0.88148323  1
  Al  Al12  1  0.88148323  0.88148323  0.35555032  1
  Al  Al13  1  0.88148323  0.88148323  0.88148323  1
  Al  Al14  1  0.99570037  0.33476654  0.33476654  1
  Al  Al15  1  0.33476654  0.99570037  0.33476654  1
  Al  Al16  1  0.33476654  0.33476654  0.99570037  1
  Al  Al17  1  0.33476654  0.33476654  0.33476654  1
  Al  Al18  1  0.00429963  0.66523346  0.66523346  1
  Al  Al19  1  0.66523346  0.00429963  0.66523346  1
  Al  Al20  1  0.66523346  0.66523346  0.00429963  1
  Al  Al21  1  0.66523346  0.66523346  0.66523346  1
  Co  Co22  1  0.00000000  -0.00000000  -0.00000000  1
  Co  Co23  1  0.50000000  -0.00000000  -0.00000000  1
  Co  Co24  1  0.50000000  -0.00000000  0.50000000  1
  Co  Co25  1  0.50000000  0.50000000  -0.00000000  1
  Co  Co26  1  0.00000000  0.50000000  0.50000000  1
  Co  Co27  1  0.00000000  0.50000000  -0.00000000  1
  Co  Co28  1  0.00000000  -0.00000000  0.50000000  1
