# generated using pymatgen
data_Na2TiFe(PO4)3
_symmetry_space_group_name_H-M   'P 1'
_cell_length_a   8.87838340
_cell_length_b   8.88199023
_cell_length_c   17.75988949
_cell_angle_alpha   58.99173734
_cell_angle_beta   58.92773423
_cell_angle_gamma   58.91144994
_symmetry_Int_Tables_number   1
_chemical_formula_structural   Na2TiFe(PO4)3
_chemical_formula_sum   'Na8 Ti4 Fe4 P12 O48'
_cell_volume   966.43468244
_cell_formula_units_Z   4
loop_
 _symmetry_equiv_pos_site_id
 _symmetry_equiv_pos_as_xyz
  1  'x, y, z'
loop_
 _atom_site_type_symbol
 _atom_site_label
 _atom_site_symmetry_multiplicity
 _atom_site_fract_x
 _atom_site_fract_y
 _atom_site_fract_z
 _atom_site_occupancy
  Na  Na0  1  0.00419359  0.01359490  0.99337337  1
  Na  Na1  1  0.00147741  0.01623917  0.49252014  1
  Na  Na2  1  0.38450174  0.75016671  0.05855653  1
  Na  Na3  1  0.49111989  0.48065771  0.26154020  1
  Na  Na4  1  0.88617748  0.60916802  0.12313573  1
  Na  Na5  1  0.47602691  0.51822300  0.75235966  1
  Na  Na6  1  0.61539356  0.24743225  0.94349587  1
  Na  Na7  1  0.88276149  0.62002179  0.62660092  1
  Ti  Ti8  1  0.14743946  0.13950671  0.57195367  1
  Ti  Ti9  1  0.35707253  0.35495236  0.67838105  1
  Ti  Ti10  1  0.64199920  0.64313017  0.32657439  1
  Ti  Ti11  1  0.85382103  0.86106333  0.42335484  1
  Fe  Fe12  1  0.13976846  0.15160090  0.07368730  1
  Fe  Fe13  1  0.35572236  0.34607615  0.18058468  1
  Fe  Fe14  1  0.64350923  0.65454085  0.82356751  1
  Fe  Fe15  1  0.86055617  0.84989212  0.92171586  1
  P  P16  1  0.03769244  0.74737498  0.23014850  1
  P  P17  1  0.46064531  0.03738202  0.37546315  1
  P  P18  1  0.75126382  0.45415762  0.02124844  1
  P  P19  1  0.25178776  0.53516946  0.48039902  1
  P  P20  1  0.53659895  0.95311055  0.12681038  1
  P  P21  1  0.04011174  0.75011956  0.72585439  1
  P  P22  1  0.96134079  0.24775991  0.27216090  1
  P  P23  1  0.46078902  0.04902822  0.87424034  1
  P  P24  1  0.75252042  0.46242027  0.52089387  1
  P  P25  1  0.25275782  0.54493087  0.97958079  1
  P  P26  1  0.53837818  0.96403155  0.62404461  1
  P  P27  1  0.96484264  0.24624512  0.76902939  1
  O  O28  1  0.12433325  0.28347071  0.25993413  1
  O  O29  1  0.28440949  0.52498910  0.06298228  1
  O  O30  1  0.06139543  0.91444860  0.13889302  1
  O  O31  1  0.49876502  0.12781064  0.14063591  1
  O  O32  1  0.98895512  0.79291826  0.31605758  1
  O  O33  1  0.22216464  0.58068020  0.22233955  1
  O  O34  1  0.27966320  0.05817515  0.46085672  1
  O  O35  1  0.44598824  0.21573063  0.29112042  1
  O  O36  1  0.21192489  0.36881193  0.49683787  1
  O  O37  1  0.57742379  0.44032009  0.11203412  1
  O  O38  1  0.07882648  0.71689045  0.47040533  1
  O  O39  1  0.37590705  0.96943390  0.10878905  1
  O  O40  1  0.62744313  0.99420094  0.39969099  1
  O  O41  1  0.13134956  0.29214144  0.74879021  1
  O  O42  1  0.92016487  0.27389145  0.03225601  1
  O  O43  1  0.42209647  0.56066051  0.39051260  1
  O  O44  1  0.78376702  0.62597635  0.00532473  1
  O  O45  1  0.28422366  0.50100301  0.56615117  1
  O  O46  1  0.57189600  0.76947935  0.21156753  1
  O  O47  1  0.06834660  0.92295547  0.63565104  1
  O  O48  1  0.50283563  0.13168883  0.64386297  1
  O  O49  1  0.72375198  0.93037838  0.04237373  1
  O  O50  1  0.00687904  0.78258834  0.81030168  1
  O  O51  1  0.22541516  0.58214910  0.71162538  1
  O  O52  1  0.77664435  0.41883874  0.28610452  1
  O  O53  1  0.98573586  0.22421872  0.18656386  1
  O  O54  1  0.27898554  0.06322799  0.95991413  1
  O  O55  1  0.49881015  0.86758666  0.35577667  1
  O  O56  1  0.93266942  0.07572340  0.36248421  1
  O  O57  1  0.43067642  0.22919547  0.78827258  1
  O  O58  1  0.71331581  0.50574824  0.43489734  1
  O  O59  1  0.22325418  0.36950785  0.99992423  1
  O  O60  1  0.58058623  0.43650716  0.60997640  1
  O  O61  1  0.07900707  0.72322426  0.96863972  1
  O  O62  1  0.87314344  0.70236313  0.24688782  1
  O  O63  1  0.37218220  0.00238282  0.60163877  1
  O  O64  1  0.62273247  0.03108784  0.89223607  1
  O  O65  1  0.92280579  0.28020214  0.53017079  1
  O  O66  1  0.42474492  0.56082403  0.88838705  1
  O  O67  1  0.79193550  0.62599652  0.50838777  1
  O  O68  1  0.56238037  0.77924044  0.70700595  1
  O  O69  1  0.72405618  0.93662471  0.54002811  1
  O  O70  1  0.78147328  0.41756482  0.77709190  1
  O  O71  1  0.00479892  0.20760735  0.68326228  1
  O  O72  1  0.50206334  0.87585164  0.85749272  1
  O  O73  1  0.93842323  0.08260577  0.86133912  1
  O  O74  1  0.70970571  0.48428621  0.93864371  1
  O  O75  1  0.87967449  0.71279497  0.73460473  1
