# generated using pymatgen
data_Dy7(TePt)2
_symmetry_space_group_name_H-M   'P 1'
_cell_length_a   9.43835894
_cell_length_b   9.43835894
_cell_length_c   9.43835894
_cell_angle_alpha   155.78099232
_cell_angle_beta   118.41326276
_cell_angle_gamma   67.18158274
_symmetry_Int_Tables_number   1
_chemical_formula_structural   Dy7(TePt)2
_chemical_formula_sum   'Dy7 Te2 Pt2'
_cell_volume   300.87588566
_cell_formula_units_Z   1
loop_
 _symmetry_equiv_pos_site_id
 _symmetry_equiv_pos_as_xyz
  1  'x, y, z'
loop_
 _atom_site_type_symbol
 _atom_site_label
 _atom_site_symmetry_multiplicity
 _atom_site_fract_x
 _atom_site_fract_y
 _atom_site_fract_z
 _atom_site_occupancy
  Dy  Dy0  1  0.54553000  0.12928600  0.41624400  1
  Dy  Dy1  1  0.28695900  0.87071400  0.41624400  1
  Dy  Dy2  1  0.93914700  0.31606800  0.62307900  1
  Dy  Dy3  1  0.30701100  0.68393200  0.62307900  1
  Dy  Dy4  1  0.62422800  0.35667900  0.26754800  1
  Dy  Dy5  1  0.91086900  0.64332100  0.26754800  1
  Dy  Dy6  1  0.00020000  0.00000000  0.00020000  1
  Te  Te7  1  0.26154800  0.50000000  0.76154800  1
  Te  Te8  1  0.66283400  0.00000000  0.66283400  1
  Pt  Pt9  1  0.16398900  0.23772200  0.92626700  1
  Pt  Pt10  1  0.68854500  0.76227800  0.92626700  1
