# generated using pymatgen
data_MnB4O7
_symmetry_space_group_name_H-M   'P 1'
_cell_length_a   8.23395084
_cell_length_b   8.81024355
_cell_length_c   14.18691046
_cell_angle_alpha   90.00000000
_cell_angle_beta   90.00000000
_cell_angle_gamma   90.00000000
_symmetry_Int_Tables_number   1
_chemical_formula_structural   MnB4O7
_chemical_formula_sum   'Mn8 B32 O56'
_cell_volume   1029.16263839
_cell_formula_units_Z   8
loop_
 _symmetry_equiv_pos_site_id
 _symmetry_equiv_pos_as_xyz
  1  'x, y, z'
loop_
 _atom_site_type_symbol
 _atom_site_label
 _atom_site_symmetry_multiplicity
 _atom_site_fract_x
 _atom_site_fract_y
 _atom_site_fract_z
 _atom_site_occupancy
  B  B0  1  0.18705145  0.13985666  0.46161187  1
  B  B1  1  0.68705230  0.36014300  0.53838792  1
  B  B2  1  0.81294782  0.63985633  0.03838803  1
  B  B3  1  0.31294818  0.86014380  0.96161248  1
  B  B4  1  0.81294782  0.86014380  0.53838792  1
  B  B5  1  0.31294818  0.63985633  0.46161187  1
  B  B6  1  0.18705145  0.36014300  0.96161248  1
  B  B7  1  0.68705230  0.13985666  0.03838803  1
  B  B8  1  0.99371913  0.07267725  0.33573771  1
  B  B9  1  0.49371950  0.42732355  0.66426279  1
  B  B10  1  0.00628135  0.57267692  0.16426289  1
  B  B11  1  0.50628099  0.92732321  0.83573761  1
  B  B12  1  0.00628135  0.92732321  0.66426279  1
  B  B13  1  0.50628099  0.57267692  0.33573771  1
  B  B14  1  0.99371913  0.42732355  0.83573761  1
  B  B15  1  0.49371950  0.07267725  0.16426289  1
  B  B16  1  0.02860395  0.33538638  0.26576337  1
  B  B17  1  0.52860480  0.16461329  0.73423642  1
  B  B18  1  0.97139532  0.83538604  0.23423652  1
  B  B19  1  0.47139569  0.66461409  0.76576327  1
  B  B20  1  0.97139532  0.66461409  0.73423642  1
  B  B21  1  0.47139569  0.83538604  0.26576337  1
  B  B22  1  0.02860395  0.16461329  0.76576327  1
  B  B23  1  0.52860480  0.33538638  0.23423652  1
  B  B24  1  0.93564305  0.29081527  0.43332300  1
  B  B25  1  0.43564220  0.20918439  0.56667679  1
  B  B26  1  0.06435744  0.79081607  0.06667690  1
  B  B27  1  0.56435707  0.70918406  0.93332290  1
  B  B28  1  0.06435744  0.70918406  0.56667679  1
  B  B29  1  0.56435707  0.79081607  0.43332300  1
  B  B30  1  0.93564305  0.20918439  0.93332290  1
  B  B31  1  0.43564220  0.29081527  0.06667690  1
  O  O32  1  0.14551578  0.05107016  0.38766389  1
  O  O33  1  0.64551542  0.44893064  0.61233661  1
  O  O34  1  0.85448470  0.55106983  0.11233601  1
  O  O35  1  0.35448507  0.94893030  0.88766379  1
  O  O36  1  0.85448470  0.94893030  0.61233661  1
  O  O37  1  0.35448507  0.55106983  0.38766389  1
  O  O38  1  0.14551578  0.44893064  0.88766379  1
  O  O39  1  0.64551542  0.05107016  0.11233601  1
  O  O40  1  0.08468832  0.25704834  0.49107154  1
  O  O41  1  0.58468917  0.24295132  0.50892896  1
  O  O42  1  0.91531095  0.75704915  0.00892836  1
  O  O43  1  0.41531131  0.74295098  0.99107144  1
  O  O44  1  0.91531095  0.74295098  0.50892896  1
  O  O45  1  0.41531131  0.75704915  0.49107154  1
  O  O46  1  0.08468832  0.24295132  0.99107144  1
  O  O47  1  0.58468917  0.25704834  0.00892836  1
  O  O48  1  0.03300091  0.17908816  0.25150421  1
  O  O49  1  0.53300176  0.32091264  0.74849558  1
  O  O50  1  0.96699836  0.67908782  0.24849568  1
  O  O51  1  0.46699872  0.82091231  0.75150411  1
  O  O52  1  0.96699836  0.82091231  0.74849558  1
  O  O53  1  0.46699872  0.67908782  0.25150421  1
  O  O54  1  0.03300091  0.32091264  0.75150411  1
  O  O55  1  0.53300176  0.17908816  0.24849568  1
  O  O56  1  0.98253903  0.39297623  0.35260096  1
  O  O57  1  0.48253940  0.10702343  0.64739884  1
  O  O58  1  0.01746145  0.89297590  0.14739894  1
  O  O59  1  0.51746109  0.60702423  0.85260085  1
  O  O60  1  0.01746145  0.60702423  0.64739884  1
  O  O61  1  0.51746109  0.89297590  0.35260096  1
  O  O62  1  0.98253903  0.10702343  0.85260085  1
  O  O63  1  0.48253940  0.39297623  0.14739894  1
  O  O64  1  0.83237208  0.38533063  0.49213840  1
  O  O65  1  0.33237244  0.11466903  0.50786210  1
  O  O66  1  0.16762719  0.88533143  0.00786220  1
  O  O67  1  0.66762683  0.61466870  0.99213830  1
  O  O68  1  0.16762719  0.61466870  0.50786210  1
  O  O69  1  0.66762683  0.88533143  0.49213840  1
  O  O70  1  0.83237208  0.11466903  0.99213830  1
  O  O71  1  0.33237244  0.38533063  0.00786220  1
  O  O72  1  0.86983215  0.15132191  0.39450366  1
  O  O73  1  0.36983252  0.34867775  0.60549613  1
  O  O74  1  0.13016712  0.65132271  0.10549624  1
  O  O75  1  0.63016675  0.84867742  0.89450356  1
  O  O76  1  0.13016712  0.84867742  0.60549613  1
  O  O77  1  0.63016675  0.65132271  0.39450366  1
  O  O78  1  0.86983215  0.34867775  0.89450356  1
  O  O79  1  0.36983252  0.15132191  0.10549624  1
  O  O80  1  0.57168891  0.42815735  0.30639549  1
  O  O81  1  0.07168928  0.07184231  0.69360430  1
  O  O82  1  0.42831036  0.92815815  0.19360441  1
  O  O83  1  0.92831000  0.57184198  0.80639610  1
  O  O84  1  0.42831036  0.57184198  0.69360430  1
  O  O85  1  0.92831000  0.92815815  0.30639549  1
  O  O86  1  0.57168891  0.07184231  0.80639610  1
  O  O87  1  0.07168928  0.42815735  0.19360441  1
  Mn  Mn88  1  0.61860597  0.10784227  0.38674289  1
  Mn  Mn89  1  0.11860633  0.39215739  0.61325691  1
  Mn  Mn90  1  0.38139331  0.60784193  0.11325701  1
  Mn  Mn91  1  0.88139416  0.89215706  0.88674349  1
  Mn  Mn92  1  0.38139331  0.89215706  0.61325691  1
  Mn  Mn93  1  0.88139416  0.60784193  0.38674289  1
  Mn  Mn94  1  0.61860597  0.39215739  0.88674349  1
  Mn  Mn95  1  0.11860633  0.10784227  0.11325701  1
