# generated using pymatgen
data_La4FeSe6O
_symmetry_space_group_name_H-M   'P 1'
_cell_length_a   9.80926109
_cell_length_b   9.81350089
_cell_length_c   14.23230620
_cell_angle_alpha   90.46974363
_cell_angle_beta   90.30522071
_cell_angle_gamma   59.92448013
_symmetry_Int_Tables_number   1
_chemical_formula_structural   La4FeSe6O
_chemical_formula_sum   'La16 Fe4 Se24 O4'
_cell_volume   1185.55074520
_cell_formula_units_Z   4
loop_
 _symmetry_equiv_pos_site_id
 _symmetry_equiv_pos_as_xyz
  1  'x, y, z'
loop_
 _atom_site_type_symbol
 _atom_site_label
 _atom_site_symmetry_multiplicity
 _atom_site_fract_x
 _atom_site_fract_y
 _atom_site_fract_z
 _atom_site_occupancy
  La  La0  1  0.66728200  0.66760900  0.10377600  1
  La  La1  1  0.66688400  0.67000600  0.60339600  1
  La  La2  1  0.33222700  0.33068700  0.35355200  1
  La  La3  1  0.33429200  0.33288900  0.85336500  1
  La  La4  1  0.20005500  0.59903700  0.08074800  1
  La  La5  1  0.19832800  0.60081100  0.58098500  1
  La  La6  1  0.20046100  0.19849700  0.07854800  1
  La  La7  1  0.19967000  0.19975800  0.57866300  1
  La  La8  1  0.39745000  0.80153300  0.32954100  1
  La  La9  1  0.40081600  0.79808300  0.82987100  1
  La  La10  1  0.79885800  0.80130700  0.33025000  1
  La  La11  1  0.80127900  0.79873200  0.83118600  1
  La  La12  1  0.79834500  0.40141100  0.33068500  1
  La  La13  1  0.80069900  0.39810200  0.82834200  1
  La  La14  1  0.60076400  0.19841800  0.08034600  1
  La  La15  1  0.60132300  0.19772800  0.57928100  1
  Fe  Fe16  1  0.00404100  0.99951300  0.99928900  1
  Fe  Fe17  1  0.99781500  0.00327600  0.74830800  1
  Fe  Fe18  1  0.99693700  0.00545900  0.50094900  1
  Fe  Fe19  1  0.00362600  0.99855600  0.24972200  1
  Se  Se20  1  0.87797700  0.24507400  0.13216100  1
  Se  Se21  1  0.87680600  0.24509200  0.62811400  1
  Se  Se22  1  0.25019100  0.87422100  0.13117400  1
  Se  Se23  1  0.24391100  0.87843100  0.63123900  1
  Se  Se24  1  0.75525100  0.12332100  0.38342800  1
  Se  Se25  1  0.75258200  0.12390800  0.88148900  1
  Se  Se26  1  0.87670800  0.87438800  0.13298500  1
  Se  Se27  1  0.87309900  0.87450100  0.63472300  1
  Se  Se28  1  0.12446400  0.12756000  0.38011700  1
  Se  Se29  1  0.12456000  0.12308500  0.88029600  1
  Se  Se30  1  0.11841800  0.76183700  0.38493200  1
  Se  Se31  1  0.12571200  0.75060500  0.88366200  1
  Se  Se32  1  0.05958900  0.47066300  0.22261600  1
  Se  Se33  1  0.06002100  0.46888400  0.72282700  1
  Se  Se34  1  0.46912900  0.46847900  0.22430200  1
  Se  Se35  1  0.46990700  0.46983800  0.72266500  1
  Se  Se36  1  0.47144000  0.05919400  0.22210900  1
  Se  Se37  1  0.46911400  0.05913000  0.72228600  1
  Se  Se38  1  0.52816300  0.53324300  0.47302300  1
  Se  Se39  1  0.53243800  0.52808500  0.97280600  1
  Se  Se40  1  0.52883800  0.94153400  0.47243200  1
  Se  Se41  1  0.53042500  0.93945400  0.97279500  1
  Se  Se42  1  0.93968900  0.53225900  0.47275000  1
  Se  Se43  1  0.94052400  0.52790900  0.97275200  1
  O  O44  1  0.33408200  0.33187300  0.02158000  1
  O  O45  1  0.33296500  0.33363700  0.52156100  1
  O  O46  1  0.66583200  0.66675000  0.27178300  1
  O  O47  1  0.66701400  0.66563900  0.77155100  1
