# generated using pymatgen
data_LaSm3Cr4O12
_symmetry_space_group_name_H-M   'P 1'
_cell_length_a   7.79154000
_cell_length_b   5.45994500
_cell_length_c   5.61053127
_cell_angle_alpha   89.93809373
_cell_angle_beta   90.00000000
_cell_angle_gamma   90.00000000
_symmetry_Int_Tables_number   1
_chemical_formula_structural   LaSm3Cr4O12
_chemical_formula_sum   'La1 Sm3 Cr4 O12'
_cell_volume   238.67960289
_cell_formula_units_Z   1
loop_
 _symmetry_equiv_pos_site_id
 _symmetry_equiv_pos_as_xyz
  1  'x, y, z'
loop_
 _atom_site_type_symbol
 _atom_site_label
 _atom_site_symmetry_multiplicity
 _atom_site_fract_x
 _atom_site_fract_y
 _atom_site_fract_z
 _atom_site_occupancy
  La  La0  1  0.50000000  0.48992000  0.54421500  1
  Sm  Sm1  1  0.50000000  0.01467300  0.05421800  1
  Sm  Sm2  1  0.00000000  0.51491400  0.44295700  1
  Sm  Sm3  1  0.00000000  0.98655600  0.94630200  1
  Cr  Cr4  1  0.24748300  0.00068500  0.50059700  1
  Cr  Cr5  1  0.75184900  0.49916000  0.99832800  1
  Cr  Cr6  1  0.75251700  0.00068500  0.50059700  1
  Cr  Cr7  1  0.24815100  0.49916000  0.99832800  1
  O  O8  1  0.29747400  0.19896400  0.79906100  1
  O  O9  1  0.70452700  0.29227800  0.29053800  1
  O  O10  1  0.80281600  0.79378900  0.20696500  1
  O  O11  1  0.19608400  0.70407800  0.70518100  1
  O  O12  1  0.19718400  0.79378900  0.20696500  1
  O  O13  1  0.80391600  0.70407800  0.70518100  1
  O  O14  1  0.70252600  0.19896400  0.79906100  1
  O  O15  1  0.29547300  0.29227800  0.29053800  1
  O  O16  1  0.50000000  0.59682500  0.98048800  1
  O  O17  1  0.50000000  0.91766300  0.47064600  1
  O  O18  1  0.00000000  0.40276400  0.02864100  1
  O  O19  1  0.00000000  0.09877700  0.53119300  1
