# generated using pymatgen
data_Li3Ce4B12(H12Cl)4
_symmetry_space_group_name_H-M   'P 1'
_cell_length_a   9.98463762
_cell_length_b   9.98463762
_cell_length_c   11.52532845
_cell_angle_alpha   55.38786605
_cell_angle_beta   55.38786605
_cell_angle_gamma   70.86301091
_symmetry_Int_Tables_number   1
_chemical_formula_structural   Li3Ce4B12(H12Cl)4
_chemical_formula_sum   'Li3 Ce4 B12 H48 Cl4'
_cell_volume   778.25490118
_cell_formula_units_Z   1
loop_
 _symmetry_equiv_pos_site_id
 _symmetry_equiv_pos_as_xyz
  1  'x, y, z'
loop_
 _atom_site_type_symbol
 _atom_site_label
 _atom_site_symmetry_multiplicity
 _atom_site_fract_x
 _atom_site_fract_y
 _atom_site_fract_z
 _atom_site_occupancy
  Li  Li0  1  0.23971600  0.76028400  0.50000000  1
  Li  Li1  1  0.50486000  0.49361200  0.24563700  1
  Li  Li2  1  0.50638800  0.49514000  0.75436300  1
  Ce  Ce3  1  0.28837100  0.00085800  0.71278600  1
  Ce  Ce4  1  0.99770900  0.28247700  0.00562800  1
  Ce  Ce5  1  0.71752300  0.00229100  0.99437200  1
  Ce  Ce6  1  0.99914200  0.71162900  0.28721400  1
  B  B7  1  0.48270100  0.24816800  0.50982200  1
  B  B8  1  0.48411100  0.75276400  0.75693200  1
  B  B9  1  0.24315100  0.99387000  0.51536900  1
  B  B10  1  0.24336800  0.48876200  0.75556100  1
  B  B11  1  0.75388600  0.48235000  0.00672100  1
  B  B12  1  0.00023000  0.24233600  0.24152500  1
  B  B13  1  0.51123800  0.75663200  0.24443900  1
  B  B14  1  0.51765000  0.24611400  0.99327900  1
  B  B15  1  0.75766400  0.99977000  0.75847500  1
  B  B16  1  0.75183200  0.51729900  0.49017800  1
  B  B17  1  0.24723600  0.51588900  0.24306800  1
  B  B18  1  0.00613000  0.75684900  0.48463100  1
  H  H19  1  0.52715400  0.14349700  0.46846200  1
  H  H20  1  0.52827700  0.85551300  0.61260200  1
  H  H21  1  0.38836600  0.99574400  0.47196100  1
  H  H22  1  0.14190300  0.53114200  0.85777800  1
  H  H23  1  0.85738800  0.52596200  0.00574500  1
  H  H24  1  0.99956300  0.38773100  0.13911100  1
  H  H25  1  0.46885800  0.85809700  0.14222200  1
  H  H26  1  0.47403800  0.14261200  0.99425500  1
  H  H27  1  0.61226900  0.00043700  0.86088900  1
  H  H28  1  0.85650300  0.47284600  0.53153800  1
  H  H29  1  0.14448700  0.47172300  0.38739800  1
  H  H30  1  0.00425600  0.61163400  0.52803900  1
  H  H31  1  0.57906400  0.35875800  0.41382200  1
  H  H32  1  0.58149500  0.64199000  0.77153700  1
  H  H33  1  0.22819600  0.99610700  0.41710400  1
  H  H34  1  0.35323200  0.58777000  0.64617500  1
  H  H35  1  0.64326700  0.58036200  0.00543000  1
  H  H36  1  0.00034400  0.22547500  0.35324800  1
  H  H37  1  0.41223000  0.64676800  0.35382500  1
  H  H38  1  0.41963800  0.35673300  0.99457000  1
  H  H39  1  0.77452500  0.99965600  0.64675200  1
  H  H40  1  0.64124200  0.42093600  0.58617800  1
  H  H41  1  0.35801000  0.41850500  0.22846300  1
  H  H42  1  0.00389300  0.77180400  0.58289600  1
  H  H43  1  0.46953800  0.18003400  0.64485100  1
  H  H44  1  0.34617700  0.70787100  0.81752700  1
  H  H45  1  0.17614900  0.11434100  0.53201800  1
  H  H46  1  0.34421000  0.29322700  0.52640100  1
  H  H47  1  0.18171300  0.87240700  0.65173600  1
  H  H48  1  0.46917800  0.82277900  0.82398400  1
  H  H49  1  0.17485900  0.47350100  0.70239700  1
  H  H50  1  0.70825600  0.34536600  0.12766800  1
  H  H51  1  0.12052200  0.18017100  0.16400400  1
  H  H52  1  0.29738800  0.35371400  0.82293300  1
  H  H53  1  0.87909100  0.18201300  0.28274500  1
  H  H54  1  0.82223900  0.46544800  0.88694600  1
  H  H55  1  0.52649900  0.82514100  0.29760300  1
  H  H56  1  0.65463400  0.29174400  0.87233200  1
  H  H57  1  0.81982900  0.87947800  0.83599600  1
  H  H58  1  0.64628600  0.70261200  0.17706700  1
  H  H59  1  0.81798700  0.12090900  0.71725500  1
  H  H60  1  0.53455200  0.17776100  0.11305400  1
  H  H61  1  0.81996600  0.53046200  0.35514900  1
  H  H62  1  0.29212900  0.65382300  0.18247300  1
  H  H63  1  0.88565900  0.82385100  0.46798200  1
  H  H64  1  0.70677300  0.65579000  0.47359900  1
  H  H65  1  0.12759300  0.81828700  0.34826400  1
  H  H66  1  0.17722100  0.53082200  0.17601600  1
  Cl  Cl67  1  0.78685200  0.00025100  0.21298200  1
  Cl  Cl68  1  0.00041400  0.78656500  0.99923200  1
  Cl  Cl69  1  0.21343500  0.99958600  0.00076800  1
  Cl  Cl70  1  0.99974900  0.21314800  0.78701800  1
