# generated using pymatgen
data_Te6IrI3
_symmetry_space_group_name_H-M   'P 1'
_cell_length_a   10.12907392
_cell_length_b   10.12907392
_cell_length_c   10.12907368
_cell_angle_alpha   109.63060395
_cell_angle_beta   109.63060395
_cell_angle_gamma   109.63060140
_symmetry_Int_Tables_number   1
_chemical_formula_structural   Te6IrI3
_chemical_formula_sum   'Te12 Ir2 I6'
_cell_volume   795.23930902
_cell_formula_units_Z   2
loop_
 _symmetry_equiv_pos_site_id
 _symmetry_equiv_pos_as_xyz
  1  'x, y, z'
loop_
 _atom_site_type_symbol
 _atom_site_label
 _atom_site_symmetry_multiplicity
 _atom_site_fract_x
 _atom_site_fract_y
 _atom_site_fract_z
 _atom_site_occupancy
  Te  Te0  1  0.94326500  0.16483700  0.18092000  1
  Te  Te1  1  0.18092000  0.94326500  0.16483700  1
  Te  Te2  1  0.16483700  0.18092000  0.94326500  1
  Te  Te3  1  0.68092000  0.66483700  0.44326500  1
  Te  Te4  1  0.44326500  0.68092000  0.66483700  1
  Te  Te5  1  0.66483700  0.44326500  0.68092000  1
  Te  Te6  1  0.05673500  0.83516300  0.81908000  1
  Te  Te7  1  0.81908000  0.05673500  0.83516300  1
  Te  Te8  1  0.83516300  0.81908000  0.05673500  1
  Te  Te9  1  0.31908000  0.33516300  0.55673500  1
  Te  Te10  1  0.55673500  0.31908000  0.33516300  1
  Te  Te11  1  0.33516300  0.55673500  0.31908000  1
  Ir  Ir12  1  0.25000000  0.25000000  0.25000000  1
  Ir  Ir13  1  0.75000000  0.75000000  0.75000000  1
  I  I14  1  0.99301300  0.50698700  0.25000000  1
  I  I15  1  0.25000000  0.99301300  0.50698700  1
  I  I16  1  0.50698700  0.25000000  0.99301300  1
  I  I17  1  0.75000000  0.00698700  0.49301300  1
  I  I18  1  0.49301300  0.75000000  0.00698700  1
  I  I19  1  0.00698700  0.49301300  0.75000000  1
