# generated using pymatgen
data_Dy5(Si5Ir2)2
_symmetry_space_group_name_H-M   'P 1'
_cell_length_a   12.62907100
_cell_length_b   12.62907100
_cell_length_c   4.27371500
_cell_angle_alpha   90.00000000
_cell_angle_beta   90.00000000
_cell_angle_gamma   90.00000000
_symmetry_Int_Tables_number   1
_chemical_formula_structural   Dy5(Si5Ir2)2
_chemical_formula_sum   'Dy10 Si20 Ir8'
_cell_volume   681.62948267
_cell_formula_units_Z   2
loop_
 _symmetry_equiv_pos_site_id
 _symmetry_equiv_pos_as_xyz
  1  'x, y, z'
loop_
 _atom_site_type_symbol
 _atom_site_label
 _atom_site_symmetry_multiplicity
 _atom_site_fract_x
 _atom_site_fract_y
 _atom_site_fract_z
 _atom_site_occupancy
  Dy  Dy0  1  0.50000000  0.50000000  0.00000000  1
  Dy  Dy1  1  0.00000000  0.00000000  0.00000000  1
  Dy  Dy2  1  0.67576500  0.17576500  0.50000000  1
  Dy  Dy3  1  0.32423500  0.82423500  0.50000000  1
  Dy  Dy4  1  0.17576500  0.32423500  0.50000000  1
  Dy  Dy5  1  0.82423500  0.67576500  0.50000000  1
  Dy  Dy6  1  0.88373400  0.38373400  0.50000000  1
  Dy  Dy7  1  0.11626600  0.61626600  0.50000000  1
  Dy  Dy8  1  0.38373400  0.11626600  0.50000000  1
  Dy  Dy9  1  0.61626600  0.88373400  0.50000000  1
  Si  Si10  1  0.56556600  0.06556600  0.00000000  1
  Si  Si11  1  0.43443400  0.93443400  0.00000000  1
  Si  Si12  1  0.06556600  0.43443400  0.00000000  1
  Si  Si13  1  0.93443400  0.56556600  0.00000000  1
  Si  Si14  1  0.66349300  0.70072700  0.00000000  1
  Si  Si15  1  0.33650700  0.29927300  0.00000000  1
  Si  Si16  1  0.16349300  0.79927300  0.00000000  1
  Si  Si17  1  0.83650700  0.20072700  0.00000000  1
  Si  Si18  1  0.29927300  0.66349300  0.00000000  1
  Si  Si19  1  0.70072700  0.33650700  0.00000000  1
  Si  Si20  1  0.20072700  0.16349300  0.00000000  1
  Si  Si21  1  0.79927300  0.83650700  0.00000000  1
  Si  Si22  1  0.65700000  0.50328200  0.50000000  1
  Si  Si23  1  0.34300000  0.49671800  0.50000000  1
  Si  Si24  1  0.15700000  0.99671800  0.50000000  1
  Si  Si25  1  0.84300000  0.00328200  0.50000000  1
  Si  Si26  1  0.49671800  0.65700000  0.50000000  1
  Si  Si27  1  0.50328200  0.34300000  0.50000000  1
  Si  Si28  1  0.00328200  0.15700000  0.50000000  1
  Si  Si29  1  0.99671800  0.84300000  0.50000000  1
  Ir  Ir30  1  0.74545500  0.52040900  0.00000000  1
  Ir  Ir31  1  0.25454500  0.47959100  0.00000000  1
  Ir  Ir32  1  0.24545500  0.97959100  0.00000000  1
  Ir  Ir33  1  0.75454500  0.02040900  0.00000000  1
  Ir  Ir34  1  0.47959100  0.74545500  0.00000000  1
  Ir  Ir35  1  0.52040900  0.25454500  0.00000000  1
  Ir  Ir36  1  0.02040900  0.24545500  0.00000000  1
  Ir  Ir37  1  0.97959100  0.75454500  0.00000000  1
