# generated using pymatgen
data_BH6N
_symmetry_space_group_name_H-M   'P 1'
_cell_length_a   4.76156950
_cell_length_b   4.76156950
_cell_length_c   6.37013800
_cell_angle_alpha   90.00000000
_cell_angle_beta   90.00000000
_cell_angle_gamma   100.88860110
_symmetry_Int_Tables_number   1
_chemical_formula_structural   BH6N
_chemical_formula_sum   'B2 H12 N2'
_cell_volume   141.82701213
_cell_formula_units_Z   2
loop_
 _symmetry_equiv_pos_site_id
 _symmetry_equiv_pos_as_xyz
  1  'x, y, z'
loop_
 _atom_site_type_symbol
 _atom_site_label
 _atom_site_symmetry_multiplicity
 _atom_site_fract_x
 _atom_site_fract_y
 _atom_site_fract_z
 _atom_site_occupancy
  B  B0  1  0.16664500  0.83335500  0.69134700  1
  B  B1  1  0.83335500  0.16664500  0.19134700  1
  H  H2  1  0.44496100  0.82869200  0.96929300  1
  H  H3  1  0.17130800  0.55503900  0.96929300  1
  H  H4  1  0.55503900  0.17130800  0.46929300  1
  H  H5  1  0.82869200  0.44496100  0.46929300  1
  H  H6  1  0.12214300  0.87785700  0.03028200  1
  H  H7  1  0.87785700  0.12214300  0.53028200  1
  H  H8  1  0.29901200  0.70098800  0.57577800  1
  H  H9  1  0.70098800  0.29901200  0.07577800  1
  H  H10  1  0.23762800  0.09236300  0.66512300  1
  H  H11  1  0.90763700  0.76237200  0.66512300  1
  H  H12  1  0.76237200  0.90763700  0.16512300  1
  H  H13  1  0.09236300  0.23762800  0.16512300  1
  N  N14  1  0.23266100  0.76733900  0.92976100  1
  N  N15  1  0.76733900  0.23266100  0.42976100  1
