# generated using pymatgen
data_Fe(BO2)2
_symmetry_space_group_name_H-M   'P 1'
_cell_length_a   5.55864505
_cell_length_b   6.21077008
_cell_length_c   7.26035330
_cell_angle_alpha   84.76768172
_cell_angle_beta   102.39032801
_cell_angle_gamma   76.21619546
_symmetry_Int_Tables_number   1
_chemical_formula_structural   Fe(BO2)2
_chemical_formula_sum   'Fe4 B8 O16'
_cell_volume   235.07301738
_cell_formula_units_Z   4
loop_
 _symmetry_equiv_pos_site_id
 _symmetry_equiv_pos_as_xyz
  1  'x, y, z'
loop_
 _atom_site_type_symbol
 _atom_site_label
 _atom_site_symmetry_multiplicity
 _atom_site_fract_x
 _atom_site_fract_y
 _atom_site_fract_z
 _atom_site_occupancy
  Fe  Fe0  1  0.70464500  0.28680600  0.04400200  1
  Fe  Fe1  1  0.29535300  0.71317800  0.95602200  1
  Fe  Fe2  1  0.20465600  0.78680500  0.54414000  1
  Fe  Fe3  1  0.79535500  0.21318400  0.45587100  1
  B  B4  1  0.28928200  0.08843600  0.21021800  1
  B  B5  1  0.78925100  0.58859800  0.71021400  1
  B  B6  1  0.35280700  0.26799000  0.64821000  1
  B  B7  1  0.85276400  0.76789800  0.14818600  1
  B  B8  1  0.71071800  0.91156700  0.78978000  1
  B  B9  1  0.21074600  0.41140100  0.28978000  1
  B  B10  1  0.64719200  0.73201600  0.35178500  1
  B  B11  1  0.14723400  0.23210400  0.85181300  1
  O  O12  1  0.84510300  0.86029200  0.33411000  1
  O  O13  1  0.34506700  0.36040700  0.83409300  1
  O  O14  1  0.05757100  0.23563300  0.26109600  1
  O  O15  1  0.55748500  0.73578600  0.76107800  1
  O  O16  1  0.15489600  0.13971300  0.66588800  1
  O  O17  1  0.65493400  0.63959300  0.16590300  1
  O  O18  1  0.94243000  0.76436900  0.73890200  1
  O  O19  1  0.44251600  0.26421700  0.23891900  1
  O  O20  1  0.39937700  0.88349700  0.34605100  1
  O  O21  1  0.89939500  0.38371000  0.84608300  1
  O  O22  1  0.26646600  0.44865600  0.48692700  1
  O  O23  1  0.76642100  0.94864500  0.98697700  1
  O  O24  1  0.60062300  0.11650300  0.65394700  1
  O  O25  1  0.10059800  0.61629200  0.15391500  1
  O  O26  1  0.73353800  0.55134200  0.51308000  1
  O  O27  1  0.23357600  0.05135900  0.01300900  1
