# generated using pymatgen
data_Zr3Mn8Al
_symmetry_space_group_name_H-M   'P 1'
_cell_length_a   4.86891532
_cell_length_b   4.86891532
_cell_length_c   8.12078303
_cell_angle_alpha   89.99097975
_cell_angle_beta   90.00902025
_cell_angle_gamma   119.99221813
_symmetry_Int_Tables_number   1
_chemical_formula_structural   Zr3Mn8Al
_chemical_formula_sum   'Zr3 Mn8 Al1'
_cell_volume   166.73509590
_cell_formula_units_Z   1
loop_
 _symmetry_equiv_pos_site_id
 _symmetry_equiv_pos_as_xyz
  1  'x, y, z'
loop_
 _atom_site_type_symbol
 _atom_site_label
 _atom_site_symmetry_multiplicity
 _atom_site_fract_x
 _atom_site_fract_y
 _atom_site_fract_z
 _atom_site_occupancy
  Zr  Zr0  1  0.33331800  0.66668200  0.44166400  1
  Zr  Zr1  1  0.33334100  0.66665900  0.06531000  1
  Zr  Zr2  1  0.66665000  0.33335000  0.92341900  1
  Mn  Mn3  1  0.99999100  0.00000900  0.50253800  1
  Mn  Mn4  1  0.99997400  0.00002600  0.00505000  1
  Mn  Mn5  1  0.17100700  0.34206000  0.74522100  1
  Mn  Mn6  1  0.17103100  0.82896900  0.74518600  1
  Mn  Mn7  1  0.65794000  0.82899300  0.74522100  1
  Mn  Mn8  1  0.82665200  0.65324500  0.25421800  1
  Mn  Mn9  1  0.82663900  0.17336100  0.25423700  1
  Mn  Mn10  1  0.34675500  0.17334800  0.25421800  1
  Al  Al11  1  0.66670200  0.33329800  0.56371900  1
