# generated using pymatgen
data_Nb2FeO6
_symmetry_space_group_name_H-M   'P 1'
_cell_length_a   5.33325142
_cell_length_b   5.83146340
_cell_length_c   14.95508335
_cell_angle_alpha   89.93310164
_cell_angle_beta   90.41823091
_cell_angle_gamma   90.03262332
_symmetry_Int_Tables_number   1
_chemical_formula_structural   Nb2FeO6
_chemical_formula_sum   'Nb8 Fe4 O24'
_cell_volume   465.10018774
_cell_formula_units_Z   4
loop_
 _symmetry_equiv_pos_site_id
 _symmetry_equiv_pos_as_xyz
  1  'x, y, z'
loop_
 _atom_site_type_symbol
 _atom_site_label
 _atom_site_symmetry_multiplicity
 _atom_site_fract_x
 _atom_site_fract_y
 _atom_site_fract_z
 _atom_site_occupancy
  Nb  Nb0  1  0.98446503  0.17154608  0.16536558  1
  Nb  Nb1  1  0.51073763  0.66893852  0.66496923  1
  Nb  Nb2  1  0.01056083  0.33178915  0.66481934  1
  Nb  Nb3  1  0.48437571  0.82786444  0.16527640  1
  Nb  Nb4  1  0.01620308  0.82918291  0.83440792  1
  Nb  Nb5  1  0.51622774  0.17118784  0.83448240  1
  Nb  Nb6  1  0.98993080  0.66867522  0.33527310  1
  Nb  Nb7  1  0.48977838  0.33081270  0.33503059  1
  Fe  Fe8  1  0.75038685  0.14293411  0.50012343  1
  Fe  Fe9  1  0.24758117  0.34996051  0.99992035  1
  Fe  Fe10  1  0.24900150  0.85732121  0.49985216  1
  Fe  Fe11  1  0.74789921  0.65006174  0.99989531  1
  O  O12  1  0.79598123  0.90762502  0.10220827  1
  O  O13  1  0.09181985  0.60908438  0.91764810  1
  O  O14  1  0.09105096  0.11401231  0.58166278  1
  O  O15  1  0.40919229  0.11279041  0.41849246  1
  O  O16  1  0.16104883  0.85785340  0.24141291  1
  O  O17  1  0.90875503  0.88645518  0.41845107  1
  O  O18  1  0.20452526  0.09361935  0.89849194  1
  O  O19  1  0.33721116  0.35959062  0.74097506  1
  O  O20  1  0.33959677  0.85868090  0.75880655  1
  O  O21  1  0.40826511  0.60716635  0.08182953  1
  O  O22  1  0.70451241  0.90663799  0.89844853  1
  O  O23  1  0.80625068  0.40160989  0.39849669  1
  O  O24  1  0.16302988  0.35873010  0.25887495  1
  O  O25  1  0.29599650  0.09169757  0.10221494  1
  O  O26  1  0.19385339  0.59879390  0.60146501  1
  O  O27  1  0.59199297  0.39094368  0.91767542  1
  O  O28  1  0.30640038  0.59706127  0.39820179  1
  O  O29  1  0.83720843  0.64133287  0.74103767  1
  O  O30  1  0.83960860  0.14185879  0.75872394  1
  O  O31  1  0.59064276  0.88709411  0.58158557  1
  O  O32  1  0.90813269  0.39228654  0.08182041  1
  O  O33  1  0.66112474  0.14158995  0.24132203  1
  O  O34  1  0.66294228  0.64041995  0.25899461  1
  O  O35  1  0.69370889  0.40279106  0.60174598  1
