# generated using pymatgen
data_Ca3GeO
_symmetry_space_group_name_H-M   'P 1'
_cell_length_a   6.70931099
_cell_length_b   6.70931099
_cell_length_c   6.70931099
_cell_angle_alpha   120.08130561
_cell_angle_beta   119.80216168
_cell_angle_gamma   90.10111965
_symmetry_Int_Tables_number   1
_chemical_formula_structural   Ca3GeO
_chemical_formula_sum   'Ca6 Ge2 O2'
_cell_volume   213.74557655
_cell_formula_units_Z   2
loop_
 _symmetry_equiv_pos_site_id
 _symmetry_equiv_pos_as_xyz
  1  'x, y, z'
loop_
 _atom_site_type_symbol
 _atom_site_label
 _atom_site_symmetry_multiplicity
 _atom_site_fract_x
 _atom_site_fract_y
 _atom_site_fract_z
 _atom_site_occupancy
  Ca  Ca0  1  0.27213800  0.27213800  0.50000000  1
  Ca  Ca1  1  0.72786200  0.22786200  0.00000000  1
  Ca  Ca2  1  0.27213800  0.77213800  0.00000000  1
  Ca  Ca3  1  0.72786200  0.72786200  0.50000000  1
  Ca  Ca4  1  0.79318800  0.25000000  0.54318800  1
  Ca  Ca5  1  0.20681200  0.75000000  0.45681200  1
  Ge  Ge6  1  0.25157900  0.25000000  0.00157900  1
  Ge  Ge7  1  0.74842100  0.75000000  0.99842100  1
  O  O8  1  0.00000000  0.50000000  0.50000000  1
  O  O9  1  0.50000000  0.00000000  0.50000000  1
