# generated using pymatgen
data_HfSi2
_symmetry_space_group_name_H-M   'P 1'
_cell_length_a   7.49830741
_cell_length_b   7.49830741
_cell_length_c   3.65954400
_cell_angle_alpha   90.00000000
_cell_angle_beta   90.00000000
_cell_angle_gamma   151.44465374
_symmetry_Int_Tables_number   1
_chemical_formula_structural   HfSi2
_chemical_formula_sum   'Hf2 Si4'
_cell_volume   98.35311598
_cell_formula_units_Z   2
loop_
 _symmetry_equiv_pos_site_id
 _symmetry_equiv_pos_as_xyz
  1  'x, y, z'
loop_
 _atom_site_type_symbol
 _atom_site_label
 _atom_site_symmetry_multiplicity
 _atom_site_fract_x
 _atom_site_fract_y
 _atom_site_fract_z
 _atom_site_occupancy
  Hf  Hf0  1  0.89522900  0.10477100  0.75000000  1
  Hf  Hf1  1  0.10477100  0.89522900  0.25000000  1
  Si  Si2  1  0.55454900  0.44545100  0.75000000  1
  Si  Si3  1  0.44545100  0.55454900  0.25000000  1
  Si  Si4  1  0.25031100  0.74968900  0.75000000  1
  Si  Si5  1  0.74968900  0.25031100  0.25000000  1
