# generated using pymatgen
data_Cu3H8S4(NO8)2
_symmetry_space_group_name_H-M   'P 1'
_cell_length_a   9.24933300
_cell_length_b   9.62325000
_cell_length_c   16.17278000
_cell_angle_alpha   90.00000000
_cell_angle_beta   90.00000000
_cell_angle_gamma   90.00000000
_symmetry_Int_Tables_number   1
_chemical_formula_structural   Cu3H8S4(NO8)2
_chemical_formula_sum   'Cu12 H32 S16 N8 O64'
_cell_volume   1439.51721415
_cell_formula_units_Z   4
loop_
 _symmetry_equiv_pos_site_id
 _symmetry_equiv_pos_as_xyz
  1  'x, y, z'
loop_
 _atom_site_type_symbol
 _atom_site_label
 _atom_site_symmetry_multiplicity
 _atom_site_fract_x
 _atom_site_fract_y
 _atom_site_fract_z
 _atom_site_occupancy
  Cu  Cu0  1  0.35074300  0.12631900  0.09736800  1
  Cu  Cu1  1  0.64925700  0.87368100  0.90263200  1
  Cu  Cu2  1  0.85074300  0.37368100  0.90263200  1
  Cu  Cu3  1  0.64925700  0.87368100  0.59736800  1
  Cu  Cu4  1  0.14925700  0.62631900  0.09736800  1
  Cu  Cu5  1  0.35074300  0.12631900  0.40263200  1
  Cu  Cu6  1  0.14925700  0.62631900  0.40263200  1
  Cu  Cu7  1  0.85074300  0.37368100  0.59736800  1
  Cu  Cu8  1  0.02110900  0.33982000  0.25000000  1
  Cu  Cu9  1  0.97889100  0.66018000  0.75000000  1
  Cu  Cu10  1  0.52110900  0.16018000  0.75000000  1
  Cu  Cu11  1  0.47889100  0.83982000  0.25000000  1
  H  H12  1  0.10017300  0.12064400  0.59537600  1
  H  H13  1  0.89982700  0.87935600  0.40462400  1
  H  H14  1  0.60017300  0.37935600  0.40462400  1
  H  H15  1  0.89982700  0.87935600  0.09537600  1
  H  H16  1  0.39982700  0.62064400  0.59537600  1
  H  H17  1  0.10017300  0.12064400  0.90462400  1
  H  H18  1  0.39982700  0.62064400  0.90462400  1
  H  H19  1  0.60017300  0.37935600  0.09537600  1
  H  H20  1  0.23840800  0.05510800  0.65118100  1
  H  H21  1  0.76159200  0.94489200  0.34881900  1
  H  H22  1  0.73840800  0.44489200  0.34881900  1
  H  H23  1  0.76159200  0.94489200  0.15118100  1
  H  H24  1  0.26159200  0.55510800  0.65118100  1
  H  H25  1  0.23840800  0.05510800  0.84881900  1
  H  H26  1  0.26159200  0.55510800  0.84881900  1
  H  H27  1  0.73840800  0.44489200  0.15118100  1
  H  H28  1  0.30755900  0.48113100  0.56013100  1
  H  H29  1  0.69244100  0.51886900  0.43986900  1
  H  H30  1  0.80755900  0.01886900  0.43986900  1
  H  H31  1  0.69244100  0.51886900  0.06013100  1
  H  H32  1  0.19244100  0.98113100  0.56013100  1
  H  H33  1  0.30755900  0.48113100  0.93986900  1
  H  H34  1  0.19244100  0.98113100  0.93986900  1
  H  H35  1  0.80755900  0.01886900  0.06013100  1
  H  H36  1  0.58177800  0.52971300  0.14524100  1
  H  H37  1  0.41822200  0.47028700  0.85475900  1
  H  H38  1  0.08177800  0.97028700  0.85475900  1
  H  H39  1  0.41822200  0.47028700  0.64524100  1
  H  H40  1  0.91822200  0.02971300  0.14524100  1
  H  H41  1  0.58177800  0.52971300  0.35475900  1
  H  H42  1  0.91822200  0.02971300  0.35475900  1
  H  H43  1  0.08177800  0.97028700  0.64524100  1
  S  S44  1  0.17740900  0.05602400  0.25000000  1
  S  S45  1  0.82259100  0.94397600  0.75000000  1
  S  S46  1  0.67740900  0.44397600  0.75000000  1
  S  S47  1  0.32259100  0.55602400  0.25000000  1
  S  S48  1  0.05587700  0.29649500  0.04906400  1
  S  S49  1  0.94412300  0.70350500  0.95093600  1
  S  S50  1  0.55587700  0.20350500  0.95093600  1
  S  S51  1  0.94412300  0.70350500  0.54906400  1
  S  S52  1  0.44412300  0.79649500  0.04906400  1
  S  S53  1  0.05587700  0.29649500  0.45093600  1
  S  S54  1  0.44412300  0.79649500  0.45093600  1
  S  S55  1  0.55587700  0.20350500  0.54906400  1
  S  S56  1  0.59142600  0.14824000  0.25000000  1
  S  S57  1  0.40857400  0.85176000  0.75000000  1
  S  S58  1  0.09142600  0.35176000  0.75000000  1
  S  S59  1  0.90857400  0.64824000  0.25000000  1
  N  N60  1  0.15346400  0.03090200  0.61205900  1
  N  N61  1  0.84653600  0.96909800  0.38794100  1
  N  N62  1  0.65346400  0.46909800  0.38794100  1
  N  N63  1  0.84653600  0.96909800  0.11205900  1
  N  N64  1  0.34653600  0.53090200  0.61205900  1
  N  N65  1  0.15346400  0.03090200  0.88794100  1
  N  N66  1  0.34653600  0.53090200  0.88794100  1
  N  N67  1  0.65346400  0.46909800  0.11205900  1
  O  O68  1  0.15036400  0.17103200  0.05245700  1
  O  O69  1  0.84963600  0.82896800  0.94754300  1
  O  O70  1  0.65036400  0.32896800  0.94754300  1
  O  O71  1  0.84963600  0.82896800  0.55245700  1
  O  O72  1  0.34963600  0.67103200  0.05245700  1
  O  O73  1  0.15036400  0.17103200  0.44754300  1
  O  O74  1  0.34963600  0.67103200  0.44754300  1
  O  O75  1  0.65036400  0.32896800  0.55245700  1
  O  O76  1  0.13538300  0.42234100  0.02430200  1
  O  O77  1  0.86461700  0.57765900  0.97569800  1
  O  O78  1  0.63538300  0.07765900  0.97569800  1
  O  O79  1  0.86461700  0.57765900  0.52430200  1
  O  O80  1  0.36461700  0.92234100  0.02430200  1
  O  O81  1  0.13538300  0.42234100  0.47569800  1
  O  O82  1  0.36461700  0.92234100  0.47569800  1
  O  O83  1  0.63538300  0.07765900  0.52430200  1
  O  O84  1  0.47643700  0.18445900  0.62922600  1
  O  O85  1  0.52356300  0.81554100  0.37077400  1
  O  O86  1  0.97643700  0.31554100  0.37077400  1
  O  O87  1  0.52356300  0.81554100  0.12922600  1
  O  O88  1  0.02356300  0.68445900  0.62922600  1
  O  O89  1  0.47643700  0.18445900  0.87077400  1
  O  O90  1  0.02356300  0.68445900  0.87077400  1
  O  O91  1  0.97643700  0.31554100  0.12922600  1
  O  O92  1  0.73093300  0.21861300  0.25000000  1
  O  O93  1  0.26906700  0.78138700  0.75000000  1
  O  O94  1  0.23093300  0.28138700  0.75000000  1
  O  O95  1  0.76906700  0.71861300  0.25000000  1
  O  O96  1  0.18317700  0.21184400  0.25000000  1
  O  O97  1  0.81682300  0.78815600  0.75000000  1
  O  O98  1  0.68317700  0.28815600  0.75000000  1
  O  O99  1  0.31682300  0.71184400  0.25000000  1
  O  O100  1  0.44146200  0.24217300  0.01363900  1
  O  O101  1  0.55853800  0.75782700  0.98636100  1
  O  O102  1  0.94146200  0.25782700  0.98636100  1
  O  O103  1  0.55853800  0.75782700  0.51363900  1
  O  O104  1  0.05853800  0.74217300  0.01363900  1
  O  O105  1  0.44146200  0.24217300  0.48636100  1
  O  O106  1  0.05853800  0.74217300  0.48636100  1
  O  O107  1  0.94146200  0.25782700  0.51363900  1
  O  O108  1  0.87968000  0.49199500  0.25000000  1
  O  O109  1  0.12032000  0.50800500  0.75000000  1
  O  O110  1  0.37968000  0.00800500  0.75000000  1
  O  O111  1  0.62032000  0.99199500  0.25000000  1
  O  O112  1  0.51007300  0.18640200  0.17340700  1
  O  O113  1  0.48992700  0.81359800  0.82659300  1
  O  O114  1  0.01007300  0.31359800  0.82659300  1
  O  O115  1  0.48992700  0.81359800  0.67340700  1
  O  O116  1  0.98992700  0.68640200  0.17340700  1
  O  O117  1  0.51007300  0.18640200  0.32659300  1
  O  O118  1  0.98992700  0.68640200  0.32659300  1
  O  O119  1  0.01007300  0.31359800  0.67340700  1
  O  O120  1  0.02882200  0.00460900  0.25000000  1
  O  O121  1  0.97117800  0.99539100  0.75000000  1
  O  O122  1  0.52882200  0.49539100  0.75000000  1
  O  O123  1  0.47117800  0.50460900  0.25000000  1
  O  O124  1  0.24138600  0.50297900  0.17592000  1
  O  O125  1  0.75861400  0.49702100  0.82408000  1
  O  O126  1  0.74138600  0.99702100  0.82408000  1
  O  O127  1  0.75861400  0.49702100  0.67592000  1
  O  O128  1  0.25861400  0.00297900  0.17592000  1
  O  O129  1  0.24138600  0.50297900  0.32408000  1
  O  O130  1  0.25861400  0.00297900  0.32408000  1
  O  O131  1  0.74138600  0.99702100  0.67592000  1
