# generated using pymatgen
data_NaV(OF)2
_symmetry_space_group_name_H-M   'P 1'
_cell_length_a   3.57551573
_cell_length_b   6.56286253
_cell_length_c   7.32158949
_cell_angle_alpha   110.04631470
_cell_angle_beta   90.00000665
_cell_angle_gamma   89.99999674
_symmetry_Int_Tables_number   1
_chemical_formula_structural   NaV(OF)2
_chemical_formula_sum   'Na2 V2 O4 F4'
_cell_volume   161.39692488
_cell_formula_units_Z   2
loop_
 _symmetry_equiv_pos_site_id
 _symmetry_equiv_pos_as_xyz
  1  'x, y, z'
loop_
 _atom_site_type_symbol
 _atom_site_label
 _atom_site_symmetry_multiplicity
 _atom_site_fract_x
 _atom_site_fract_y
 _atom_site_fract_z
 _atom_site_occupancy
  Na  Na0  1  0.27364891  0.36477619  0.78494950  1
  Na  Na1  1  0.77365006  0.63522383  0.21505128  1
  V  V2  1  0.74381104  0.86143456  0.78523021  1
  V  V3  1  0.24383149  0.13857094  0.21476923  1
  O  O4  1  0.73710931  0.71479430  0.55669738  1
  O  O5  1  0.23710709  0.28519745  0.44329834  1
  O  O6  1  0.26063775  0.90515510  0.85987978  1
  O  O7  1  0.76063538  0.09484572  0.14012432  1
  F  F8  1  0.27170775  0.37898768  0.11740947  1
  F  F9  1  0.77170934  0.62101594  0.88259026  1
  F  F10  1  0.77217667  0.13655965  0.75668953  1
  F  F11  1  0.27217623  0.86344162  0.24330970  1
