# generated using pymatgen
data_Sm6InFe13
_symmetry_space_group_name_H-M   'P 1'
_cell_length_a   7.99814100
_cell_length_b   7.99814100
_cell_length_c   12.87248088
_cell_angle_alpha   108.09950175
_cell_angle_beta   108.09950175
_cell_angle_gamma   90.00000000
_symmetry_Int_Tables_number   1
_chemical_formula_structural   Sm6InFe13
_chemical_formula_sum   'Sm12 In2 Fe26'
_cell_volume   739.72316579
_cell_formula_units_Z   2
loop_
 _symmetry_equiv_pos_site_id
 _symmetry_equiv_pos_as_xyz
  1  'x, y, z'
loop_
 _atom_site_type_symbol
 _atom_site_label
 _atom_site_symmetry_multiplicity
 _atom_site_fract_x
 _atom_site_fract_y
 _atom_site_fract_z
 _atom_site_occupancy
  Sm  Sm0  1  0.60473800  0.60473800  0.20947600  1
  Sm  Sm1  1  0.10473800  0.10473800  0.20947600  1
  Sm  Sm2  1  0.39526200  0.39526200  0.79052400  1
  Sm  Sm3  1  0.89526200  0.89526200  0.79052400  1
  Sm  Sm4  1  0.97830300  0.47830300  0.63015500  1
  Sm  Sm5  1  0.65185200  0.15185200  0.63015500  1
  Sm  Sm6  1  0.15185200  0.97830300  0.63015500  1
  Sm  Sm7  1  0.47830300  0.65185200  0.63015500  1
  Sm  Sm8  1  0.02169700  0.52169700  0.36984500  1
  Sm  Sm9  1  0.34814800  0.84814800  0.36984500  1
  Sm  Sm10  1  0.84814800  0.02169700  0.36984500  1
  Sm  Sm11  1  0.52169700  0.34814800  0.36984500  1
  In  In12  1  0.25000000  0.25000000  0.50000000  1
  In  In13  1  0.75000000  0.75000000  0.50000000  1
  Fe  Fe14  1  0.00000000  0.50000000  0.00000000  1
  Fe  Fe15  1  0.50000000  0.00000000  0.00000000  1
  Fe  Fe16  1  0.70974000  0.56600500  0.00000000  1
  Fe  Fe17  1  0.29026000  0.43399500  0.00000000  1
  Fe  Fe18  1  0.79026000  0.06600500  0.00000000  1
  Fe  Fe19  1  0.20974000  0.93399500  0.00000000  1
  Fe  Fe20  1  0.56600500  0.29026000  0.00000000  1
  Fe  Fe21  1  0.43399500  0.70974000  0.00000000  1
  Fe  Fe22  1  0.06600500  0.20974000  0.00000000  1
  Fe  Fe23  1  0.93399500  0.79026000  0.00000000  1
  Fe  Fe24  1  0.11986800  0.61986800  0.88152200  1
  Fe  Fe25  1  0.76165400  0.26165400  0.88152200  1
  Fe  Fe26  1  0.26165400  0.11986800  0.88152200  1
  Fe  Fe27  1  0.61986800  0.76165400  0.88152200  1
  Fe  Fe28  1  0.88013200  0.38013200  0.11847800  1
  Fe  Fe29  1  0.23834600  0.73834600  0.11847800  1
  Fe  Fe30  1  0.73834600  0.88013200  0.11847800  1
  Fe  Fe31  1  0.38013200  0.23834600  0.11847800  1
  Fe  Fe32  1  0.29177200  0.79177200  0.81030400  1
  Fe  Fe33  1  0.51853200  0.01853200  0.81030400  1
  Fe  Fe34  1  0.01853200  0.29177200  0.81030400  1
  Fe  Fe35  1  0.79177200  0.51853200  0.81030400  1
  Fe  Fe36  1  0.70822800  0.20822800  0.18969600  1
  Fe  Fe37  1  0.48146800  0.98146800  0.18969600  1
  Fe  Fe38  1  0.98146800  0.70822800  0.18969600  1
  Fe  Fe39  1  0.20822800  0.48146800  0.18969600  1
