# generated using pymatgen
data_Sr3Fe2O7
_symmetry_space_group_name_H-M   'P 1'
_cell_length_a   3.90813785
_cell_length_b   3.90813784
_cell_length_c   10.54300435
_cell_angle_alpha   100.68111327
_cell_angle_beta   100.68111329
_cell_angle_gamma   90.00000009
_symmetry_Int_Tables_number   1
_chemical_formula_structural   Sr3Fe2O7
_chemical_formula_sum   'Sr3 Fe2 O7'
_cell_volume   155.39893576
_cell_formula_units_Z   1
loop_
 _symmetry_equiv_pos_site_id
 _symmetry_equiv_pos_as_xyz
  1  'x, y, z'
loop_
 _atom_site_type_symbol
 _atom_site_label
 _atom_site_symmetry_multiplicity
 _atom_site_fract_x
 _atom_site_fract_y
 _atom_site_fract_z
 _atom_site_occupancy
  O  O0  1  0.00000000  0.00000000  0.00000000  1
  O  O1  1  0.80618183  0.80618280  0.61236516  1
  O  O2  1  0.19381649  0.19381803  0.38763503  1
  O  O3  1  0.90442324  0.40442331  0.80884704  1
  O  O4  1  0.40442407  0.90442447  0.80884718  1
  O  O5  1  0.59557688  0.09557636  0.19115319  1
  O  O6  1  0.09557771  0.59557752  0.19115332  1
  Fe  Fe7  1  0.90272026  0.90272029  0.80543936  1
  Fe  Fe8  1  0.09728069  0.09728054  0.19456101  1
  Sr  Sr9  1  0.68300089  0.68299870  0.36599964  1
  Sr  Sr10  1  0.31699996  0.31699949  0.63400055  1
  Sr  Sr11  1  0.50000038  0.50000116  0.00000021  1
