# generated using pymatgen
data_K6MnTe4
_symmetry_space_group_name_H-M   'P 1'
_cell_length_a   11.00853614
_cell_length_b   11.00853614
_cell_length_c   8.51126000
_cell_angle_alpha   90.00000000
_cell_angle_beta   90.00000000
_cell_angle_gamma   120.00000086
_symmetry_Int_Tables_number   1
_chemical_formula_structural   K6MnTe4
_chemical_formula_sum   'K12 Mn2 Te8'
_cell_volume   893.27181405
_cell_formula_units_Z   2
loop_
 _symmetry_equiv_pos_site_id
 _symmetry_equiv_pos_as_xyz
  1  'x, y, z'
loop_
 _atom_site_type_symbol
 _atom_site_label
 _atom_site_symmetry_multiplicity
 _atom_site_fract_x
 _atom_site_fract_y
 _atom_site_fract_z
 _atom_site_occupancy
  K  K0  1  0.14769200  0.85230800  0.54514900  1
  K  K1  1  0.29538400  0.14769200  0.04514900  1
  K  K2  1  0.85230800  0.70461600  0.04514900  1
  K  K3  1  0.14769200  0.29538400  0.54514900  1
  K  K4  1  0.70461600  0.85230800  0.54514900  1
  K  K5  1  0.85230800  0.14769200  0.04514900  1
  K  K6  1  0.52601700  0.47398300  0.36465700  1
  K  K7  1  0.05203300  0.52601700  0.86465700  1
  K  K8  1  0.47398300  0.94796700  0.86465700  1
  K  K9  1  0.52601700  0.05203300  0.36465700  1
  K  K10  1  0.94796700  0.47398300  0.36465700  1
  K  K11  1  0.47398300  0.52601700  0.86465700  1
  Mn  Mn12  1  0.33333300  0.66666700  0.24987700  1
  Mn  Mn13  1  0.66666700  0.33333300  0.74987700  1
  Te  Te14  1  0.33333300  0.66666700  0.57683500  1
  Te  Te15  1  0.66666700  0.33333300  0.07683500  1
  Te  Te16  1  0.19468600  0.80531400  0.14845600  1
  Te  Te17  1  0.38937100  0.19468600  0.64845600  1
  Te  Te18  1  0.80531400  0.61062900  0.64845600  1
  Te  Te19  1  0.19468600  0.38937100  0.14845600  1
  Te  Te20  1  0.61062900  0.80531400  0.14845600  1
  Te  Te21  1  0.80531400  0.19468600  0.64845600  1
