# generated using pymatgen
data_LaOs2
_symmetry_space_group_name_H-M   'P 1'
_cell_length_a   5.38351770
_cell_length_b   5.38351770
_cell_length_c   9.28895000
_cell_angle_alpha   90.00000000
_cell_angle_beta   90.00000000
_cell_angle_gamma   119.99999628
_symmetry_Int_Tables_number   1
_chemical_formula_structural   LaOs2
_chemical_formula_sum   'La4 Os8'
_cell_volume   233.14685595
_cell_formula_units_Z   4
loop_
 _symmetry_equiv_pos_site_id
 _symmetry_equiv_pos_as_xyz
  1  'x, y, z'
loop_
 _atom_site_type_symbol
 _atom_site_label
 _atom_site_symmetry_multiplicity
 _atom_site_fract_x
 _atom_site_fract_y
 _atom_site_fract_z
 _atom_site_occupancy
  La  La0  1  0.33333300  0.66666700  0.43453200  1
  La  La1  1  0.66666700  0.33333300  0.56546800  1
  La  La2  1  0.66666700  0.33333300  0.93453200  1
  La  La3  1  0.33333300  0.66666700  0.06546800  1
  Os  Os4  1  0.00000000  0.00000000  0.50000000  1
  Os  Os5  1  0.00000000  0.00000000  0.00000000  1
  Os  Os6  1  0.83026800  0.16973200  0.25000000  1
  Os  Os7  1  0.83026800  0.66053600  0.25000000  1
  Os  Os8  1  0.33946400  0.16973200  0.25000000  1
  Os  Os9  1  0.16973200  0.83026800  0.75000000  1
  Os  Os10  1  0.16973200  0.33946400  0.75000000  1
  Os  Os11  1  0.66053600  0.83026800  0.75000000  1
