# generated using pymatgen
data_CaLaMgAl2Si3HO13
_symmetry_space_group_name_H-M   'P 1'
_cell_length_a   5.74327500
_cell_length_b   8.99215900
_cell_length_c   10.17083274
_cell_angle_alpha   65.59375252
_cell_angle_beta   90.00000000
_cell_angle_gamma   90.00000000
_symmetry_Int_Tables_number   1
_chemical_formula_structural   CaLaMgAl2Si3HO13
_chemical_formula_sum   'Ca2 La2 Mg2 Al4 Si6 H2 O26'
_cell_volume   478.32839434
_cell_formula_units_Z   2
loop_
 _symmetry_equiv_pos_site_id
 _symmetry_equiv_pos_as_xyz
  1  'x, y, z'
loop_
 _atom_site_type_symbol
 _atom_site_label
 _atom_site_symmetry_multiplicity
 _atom_site_fract_x
 _atom_site_fract_y
 _atom_site_fract_z
 _atom_site_occupancy
  Ca  Ca0  1  0.75000000  0.23818800  0.15221200  1
  Ca  Ca1  1  0.25000000  0.76181200  0.84778800  1
  La  La2  1  0.75000000  0.40637000  0.42796200  1
  La  La3  1  0.25000000  0.59363000  0.57203800  1
  Mg  Mg4  1  0.25000000  0.70397500  0.20918300  1
  Mg  Mg5  1  0.75000000  0.29602500  0.79081700  1
  Al  Al6  1  0.00000000  0.00000000  0.00000000  1
  Al  Al7  1  0.50000000  0.00000000  0.00000000  1
  Al  Al8  1  0.00000000  0.00000000  0.50000000  1
  Al  Al9  1  0.50000000  0.00000000  0.50000000  1
  Si  Si10  1  0.75000000  0.66348500  0.03884700  1
  Si  Si11  1  0.25000000  0.33651500  0.96115300  1
  Si  Si12  1  0.25000000  0.31365500  0.28236700  1
  Si  Si13  1  0.75000000  0.68634500  0.71763300  1
  Si  Si14  1  0.75000000  0.81470500  0.31972500  1
  Si  Si15  1  0.25000000  0.18529500  0.68027500  1
  H  H16  1  0.25000000  0.94083600  0.31788800  1
  H  H17  1  0.75000000  0.05916400  0.68211200  1
  O  O18  1  0.99237900  0.76525500  0.03272700  1
  O  O19  1  0.49237900  0.23474500  0.96727300  1
  O  O20  1  0.00762100  0.23474500  0.96727300  1
  O  O21  1  0.50762100  0.76525500  0.03272700  1
  O  O22  1  0.97458700  0.69083600  0.35934800  1
  O  O23  1  0.47458700  0.30916400  0.64065200  1
  O  O24  1  0.02541300  0.30916400  0.64065200  1
  O  O25  1  0.52541300  0.69083600  0.35934800  1
  O  O26  1  0.01143400  0.20388200  0.34130000  1
  O  O27  1  0.51143400  0.79611800  0.65870000  1
  O  O28  1  0.98856600  0.79611800  0.65870000  1
  O  O29  1  0.48856600  0.20388200  0.34130000  1
  O  O30  1  0.25000000  0.95004100  0.12528600  1
  O  O31  1  0.75000000  0.04995900  0.87471400  1
  O  O32  1  0.75000000  0.95491700  0.14905500  1
  O  O33  1  0.25000000  0.04508300  0.85094500  1
  O  O34  1  0.75000000  0.93331500  0.40976800  1
  O  O35  1  0.25000000  0.06668500  0.59023200  1
  O  O36  1  0.75000000  0.48983700  0.17756400  1
  O  O37  1  0.25000000  0.51016300  0.82243600  1
  O  O38  1  0.25000000  0.46178400  0.33180000  1
  O  O39  1  0.75000000  0.53821600  0.66820000  1
  O  O40  1  0.25000000  0.38125800  0.10432300  1
  O  O41  1  0.75000000  0.61874200  0.89567700  1
  O  O42  1  0.25000000  0.91905300  0.42271300  1
  O  O43  1  0.75000000  0.08094700  0.57728700  1
