# generated using pymatgen
data_Ba5Cr3F18
_symmetry_space_group_name_H-M   'P 1'
_cell_length_a   15.64733668
_cell_length_b   16.75550153
_cell_length_c   16.75550153
_cell_angle_alpha   77.40695053
_cell_angle_beta   62.16471488
_cell_angle_gamma   62.16471488
_symmetry_Int_Tables_number   1
_chemical_formula_structural   Ba5Cr3F18
_chemical_formula_sum   'Ba40 Cr24 F144'
_cell_volume   3435.17006126
_cell_formula_units_Z   8
loop_
 _symmetry_equiv_pos_site_id
 _symmetry_equiv_pos_as_xyz
  1  'x, y, z'
loop_
 _atom_site_type_symbol
 _atom_site_label
 _atom_site_symmetry_multiplicity
 _atom_site_fract_x
 _atom_site_fract_y
 _atom_site_fract_z
 _atom_site_occupancy
  Ba  Ba0  1  0.01840740  0.24416728  0.72661517  1
  Ba  Ba1  1  0.48918985  0.25583272  0.77338483  1
  Ba  Ba2  1  0.24502256  0.27338483  0.74416728  1
  Ba  Ba3  1  0.76257468  0.22661517  0.75583272  1
  Ba  Ba4  1  0.98159260  0.75583272  0.27338483  1
  Ba  Ba5  1  0.51081015  0.74416728  0.22661517  1
  Ba  Ba6  1  0.75497744  0.72661517  0.25583272  1
  Ba  Ba7  1  0.23742532  0.77338483  0.24416728  1
  Ba  Ba8  1  0.49082027  0.54626253  0.67724233  1
  Ba  Ba9  1  0.21432513  0.95373747  0.82275767  1
  Ba  Ba10  1  0.66806260  0.32275767  0.04626253  1
  Ba  Ba11  1  0.53708280  0.17724233  0.45373747  1
  Ba  Ba12  1  0.50917973  0.45373747  0.32275767  1
  Ba  Ba13  1  0.78567487  0.04626253  0.17724233  1
  Ba  Ba14  1  0.33193740  0.67724233  0.95373747  1
  Ba  Ba15  1  0.46291720  0.82275767  0.54626253  1
  Ba  Ba16  1  0.00808367  0.53172095  0.69153223  1
  Ba  Ba17  1  0.73133685  0.96827905  0.80846777  1
  Ba  Ba18  1  0.19961590  0.30846777  0.03172095  1
  Ba  Ba19  1  0.03980462  0.19153223  0.46827905  1
  Ba  Ba20  1  0.99191633  0.46827905  0.30846777  1
  Ba  Ba21  1  0.26866315  0.03172095  0.19153223  1
  Ba  Ba22  1  0.80038410  0.69153223  0.96827905  1
  Ba  Ba23  1  0.96019538  0.80846777  0.53172095  1
  Ba  Ba24  1  0.72529017  0.32255041  0.47134255  1
  Ba  Ba25  1  0.01918312  0.17744959  0.02865745  1
  Ba  Ba26  1  0.69663272  0.52865745  0.82255041  1
  Ba  Ba27  1  0.54784057  0.97134255  0.67744959  1
  Ba  Ba28  1  0.27470983  0.67744959  0.52865745  1
  Ba  Ba29  1  0.98081688  0.82255041  0.97134255  1
  Ba  Ba30  1  0.30336728  0.47134255  0.17744959  1
  Ba  Ba31  1  0.45215943  0.02865745  0.32255041  1
  Ba  Ba32  1  0.21404979  0.33717607  0.46943193  1
  Ba  Ba33  1  0.52065779  0.16282393  0.03056807  1
  Ba  Ba34  1  0.18348171  0.53056807  0.83717607  1
  Ba  Ba35  1  0.05122586  0.96943193  0.66282393  1
  Ba  Ba36  1  0.78595021  0.66282393  0.53056807  1
  Ba  Ba37  1  0.47934221  0.83717607  0.96943193  1
  Ba  Ba38  1  0.81651829  0.46943193  0.16282393  1
  Ba  Ba39  1  0.94877414  0.03056807  0.33717607  1
  Cr  Cr40  1  0.78043477  0.25000000  0.25000000  1
  Cr  Cr41  1  0.53043477  0.75000000  0.75000000  1
  Cr  Cr42  1  0.21956523  0.75000000  0.75000000  1
  Cr  Cr43  1  0.46956523  0.25000000  0.25000000  1
  Cr  Cr44  1  0.00674234  0.25000000  0.25000000  1
  Cr  Cr45  1  0.75674234  0.75000000  0.75000000  1
  Cr  Cr46  1  0.99325766  0.75000000  0.75000000  1
  Cr  Cr47  1  0.24325766  0.25000000  0.25000000  1
  Cr  Cr48  1  0.40570358  0.38727169  0.57517109  1
  Cr  Cr49  1  0.86814635  0.11272831  0.92482891  1
  Cr  Cr50  1  0.48087467  0.42482891  0.88727169  1
  Cr  Cr51  1  0.29297526  0.07517109  0.61272831  1
  Cr  Cr52  1  0.59429642  0.61272831  0.42482891  1
  Cr  Cr53  1  0.13185365  0.88727169  0.07517109  1
  Cr  Cr54  1  0.51912533  0.57517109  0.11272831  1
  Cr  Cr55  1  0.70702474  0.92482891  0.38727169  1
  Cr  Cr56  1  0.85350346  0.41797802  0.60217508  1
  Cr  Cr57  1  0.37365656  0.08202198  0.89782492  1
  Cr  Cr58  1  0.95567854  0.39782492  0.91797802  1
  Cr  Cr59  1  0.77148148  0.10217508  0.58202198  1
  Cr  Cr60  1  0.14649654  0.58202198  0.39782492  1
  Cr  Cr61  1  0.62634344  0.91797802  0.10217508  1
  Cr  Cr62  1  0.04432146  0.60217508  0.08202198  1
  Cr  Cr63  1  0.22851852  0.89782492  0.41797802  1
  F  F64  1  0.11882373  0.35312106  0.65759064  1
  F  F65  1  0.62953543  0.14687894  0.84240936  1
  F  F66  1  0.27641437  0.34240936  0.85312106  1
  F  F67  1  0.97194479  0.15759064  0.64687894  1
  F  F68  1  0.88117627  0.64687894  0.34240936  1
  F  F69  1  0.37046457  0.85312106  0.15759064  1
  F  F70  1  0.72358563  0.65759064  0.14687894  1
  F  F71  1  0.02805521  0.84240936  0.35312106  1
  F  F72  1  0.68712418  0.32886375  0.18791930  1
  F  F73  1  0.70390722  0.17113625  0.31208070  1
  F  F74  1  0.37504347  0.81208070  0.82886375  1
  F  F75  1  0.51598792  0.68791930  0.67113625  1
  F  F76  1  0.31287582  0.67113625  0.81208070  1
  F  F77  1  0.29609278  0.82886375  0.68791930  1
  F  F78  1  0.62495653  0.18791930  0.17113625  1
  F  F79  1  0.48401208  0.31208070  0.32886375  1
  F  F80  1  0.70656362  0.39404887  0.31712138  1
  F  F81  1  0.91773387  0.10595113  0.18287862  1
  F  F82  1  0.52368500  0.68287862  0.89404887  1
  F  F83  1  0.60061249  0.81712138  0.60595113  1
  F  F84  1  0.29343638  0.60595113  0.68287862  1
  F  F85  1  0.08226613  0.89404887  0.81712138  1
  F  F86  1  0.47631500  0.31712138  0.10595113  1
  F  F87  1  0.39938751  0.18287862  0.39404887  1
  F  F88  1  0.85656743  0.20877673  0.33245162  1
  F  F89  1  0.89779579  0.29122327  0.16754838  1
  F  F90  1  0.68901905  0.66754838  0.70877673  1
  F  F91  1  0.56534417  0.83245162  0.79122327  1
  F  F92  1  0.14343257  0.79122327  0.66754838  1
  F  F93  1  0.10220421  0.70877673  0.83245162  1
  F  F94  1  0.31098095  0.33245162  0.29122327  1
  F  F95  1  0.43465583  0.16754838  0.20877673  1
  F  F96  1  0.93010503  0.31788472  0.36741233  1
  F  F97  1  0.11540209  0.18211528  0.13258767  1
  F  F98  1  0.79751736  0.63258767  0.81788472  1
  F  F99  1  0.74798976  0.86741233  0.68211528  1
  F  F100  1  0.06989497  0.68211528  0.63258767  1
  F  F101  1  0.88459791  0.81788472  0.86741233  1
  F  F102  1  0.20248264  0.36741233  0.18211528  1
  F  F103  1  0.25201024  0.13258767  0.31788472  1
  F  F104  1  0.00626436  0.36963652  0.18859426  1
  F  F105  1  0.06449514  0.13036348  0.31140574  1
  F  F106  1  0.69485863  0.81140574  0.86963652  1
  F  F107  1  0.87590088  0.68859426  0.63036348  1
  F  F108  1  0.99373564  0.63036348  0.81140574  1
  F  F109  1  0.93550486  0.86963652  0.68859426  1
  F  F110  1  0.30514137  0.18859426  0.13036348  1
  F  F111  1  0.12409912  0.31140574  0.36963652  1
  F  F112  1  0.37506203  0.49924718  0.50799987  1
  F  F113  1  0.88230908  0.00075282  0.99200013  1
  F  F114  1  0.38306190  0.49200013  0.99924718  1
  F  F115  1  0.37430921  0.00799987  0.50075282  1
  F  F116  1  0.62493797  0.50075282  0.49200013  1
  F  F117  1  0.11769092  0.99924718  0.00799987  1
  F  F118  1  0.61693810  0.50799987  0.00075282  1
  F  F119  1  0.62569079  0.99200013  0.49924718  1
  F  F120  1  0.44268158  0.26730660  0.63307948  1
  F  F121  1  0.84306766  0.23269340  0.86692052  1
  F  F122  1  0.57576106  0.36692052  0.76730660  1
  F  F123  1  0.20998818  0.13307948  0.73269340  1
  F  F124  1  0.55731842  0.73269340  0.36692052  1
  F  F125  1  0.15693234  0.76730660  0.13307948  1
  F  F126  1  0.42423894  0.63307948  0.23269340  1
  F  F127  1  0.79001182  0.86692052  0.26730660  1
  F  F128  1  0.26723324  0.43400433  0.67916956  1
  F  F129  1  0.88040712  0.06599567  0.82083044  1
  F  F130  1  0.44640280  0.32083044  0.93400433  1
  F  F131  1  0.20123757  0.17916956  0.56599567  1
  F  F132  1  0.73276676  0.56599567  0.32083044  1
  F  F133  1  0.11959288  0.93400433  0.17916956  1
  F  F134  1  0.55359720  0.67916956  0.06599567  1
  F  F135  1  0.79876243  0.82083044  0.43400433  1
  F  F136  1  0.54248383  0.33703236  0.46906685  1
  F  F137  1  0.84858304  0.16296764  0.03093315  1
  F  F138  1  0.51155068  0.53093315  0.83703236  1
  F  F139  1  0.37951619  0.96906685  0.66296764  1
  F  F140  1  0.45751617  0.66296764  0.53093315  1
  F  F141  1  0.15141696  0.83703236  0.96906685  1
  F  F142  1  0.48844932  0.46906685  0.16296764  1
  F  F143  1  0.62048381  0.03093315  0.33703236  1
  F  F144  1  0.34551636  0.34047683  0.52710413  1
  F  F145  1  0.71309731  0.15952317  0.97289587  1
  F  F146  1  0.37262048  0.47289587  0.84047683  1
  F  F147  1  0.18599319  0.02710413  0.65952317  1
  F  F148  1  0.65448364  0.65952317  0.47289587  1
  F  F149  1  0.28690269  0.84047683  0.02710413  1
  F  F150  1  0.62737952  0.52710413  0.15952317  1
  F  F151  1  0.81400681  0.97289587  0.34047683  1
  F  F152  1  0.48100904  0.40721245  0.62913924  1
  F  F153  1  0.01736073  0.09278755  0.87086076  1
  F  F154  1  0.61014828  0.37086076  0.90721245  1
  F  F155  1  0.38822149  0.12913924  0.59278755  1
  F  F156  1  0.51899096  0.59278755  0.37086076  1
  F  F157  1  0.98263927  0.90721245  0.12913924  1
  F  F158  1  0.38985172  0.62913924  0.09278755  1
  F  F159  1  0.61177851  0.87086076  0.40721245  1
  F  F160  1  0.87878170  0.48051480  0.48655337  1
  F  F161  1  0.34584987  0.01948520  0.01344663  1
  F  F162  1  0.86533506  0.51344663  0.98051480  1
  F  F163  1  0.85929650  0.98655337  0.51948520  1
  F  F164  1  0.12121830  0.51948520  0.51344663  1
  F  F165  1  0.65415013  0.98051480  0.98655337  1
  F  F166  1  0.13466494  0.48655337  0.01948520  1
  F  F167  1  0.14070350  0.01344663  0.48051480  1
  F  F168  1  0.82533972  0.36256252  0.72328650  1
  F  F169  1  0.41118875  0.13743748  0.77671350  1
  F  F170  1  0.04862622  0.27671350  0.86256252  1
  F  F171  1  0.68790225  0.22328650  0.63743748  1
  F  F172  1  0.17466028  0.63743748  0.27671350  1
  F  F173  1  0.58881125  0.86256252  0.22328650  1
  F  F174  1  0.95137378  0.72328650  0.13743748  1
  F  F175  1  0.31209775  0.77671350  0.36256252  1
  F  F176  1  0.70425587  0.50055796  0.64983342  1
  F  F177  1  0.35464725  0.99944204  0.85016658  1
  F  F178  1  0.85408929  0.35016658  0.00055796  1
  F  F179  1  0.70481383  0.14983342  0.49944204  1
  F  F180  1  0.29574413  0.49944204  0.35016658  1
  F  F181  1  0.64535275  0.00055796  0.14983342  1
  F  F182  1  0.14591071  0.64983342  0.99944204  1
  F  F183  1  0.29518617  0.85016658  0.50055796  1
  F  F184  1  0.00461179  0.33160012  0.56313279  1
  F  F185  1  0.39934470  0.16839988  0.93686721  1
  F  F186  1  0.06774459  0.43686721  0.83160012  1
  F  F187  1  0.83621191  0.06313279  0.66839988  1
  F  F188  1  0.99538821  0.66839988  0.43686721  1
  F  F189  1  0.60065530  0.83160012  0.06313279  1
  F  F190  1  0.93225541  0.56313279  0.16839988  1
  F  F191  1  0.16378809  0.93686721  0.33160012  1
  F  F192  1  0.82787763  0.32879031  0.56878433  1
  F  F193  1  0.22545227  0.17120969  0.93121567  1
  F  F194  1  0.89666196  0.43121567  0.82879031  1
  F  F195  1  0.65666794  0.06878433  0.67120969  1
  F  F196  1  0.17212237  0.67120969  0.43121567  1
  F  F197  1  0.77454773  0.82879031  0.06878433  1
  F  F198  1  0.10333804  0.56878433  0.17120969  1
  F  F199  1  0.34333206  0.93121567  0.32879031  1
  F  F200  1  0.88050260  0.50169106  0.64261263  1
  F  F201  1  0.52480629  0.99830894  0.85738737  1
  F  F202  1  0.02311523  0.35738737  0.00169106  1
  F  F203  1  0.88219366  0.14261263  0.49830894  1
  F  F204  1  0.11949740  0.49830894  0.35738737  1
  F  F205  1  0.47519371  0.00169106  0.14261263  1
  F  F206  1  0.97688477  0.64261263  0.99830894  1
  F  F207  1  0.11780634  0.85738737  0.50169106  1
