# generated using pymatgen
data_Zn3MoN4
_symmetry_space_group_name_H-M   'P 1'
_cell_length_a   6.57129323
_cell_length_b   5.68791151
_cell_length_c   5.36753720
_cell_angle_alpha   90.00000000
_cell_angle_beta   90.00000000
_cell_angle_gamma   90.00000000
_symmetry_Int_Tables_number   1
_chemical_formula_structural   Zn3MoN4
_chemical_formula_sum   'Zn6 Mo2 N8'
_cell_volume   200.62208581
_cell_formula_units_Z   2
loop_
 _symmetry_equiv_pos_site_id
 _symmetry_equiv_pos_as_xyz
  1  'x, y, z'
loop_
 _atom_site_type_symbol
 _atom_site_label
 _atom_site_symmetry_multiplicity
 _atom_site_fract_x
 _atom_site_fract_y
 _atom_site_fract_z
 _atom_site_occupancy
  Zn  Zn0  1  0.25148625  0.83214456  0.73097928  1
  Zn  Zn1  1  0.24851375  0.16785544  0.23097928  1
  Zn  Zn2  1  0.74851375  0.83214456  0.73097928  1
  Zn  Zn3  1  0.75148625  0.16785544  0.23097928  1
  Zn  Zn4  1  0.00000000  0.33408317  0.72971155  1
  Zn  Zn5  1  0.50000000  0.66591683  0.22971155  1
  Mo  Mo6  1  0.00000000  0.67029055  0.22930795  1
  Mo  Mo7  1  0.50000000  0.32970945  0.72930795  1
  N  N8  1  0.76336190  0.82651040  0.11360117  1
  N  N9  1  0.73663810  0.17348960  0.61360117  1
  N  N10  1  0.23663810  0.82651040  0.11360117  1
  N  N11  1  0.26336190  0.17348960  0.61360117  1
  N  N12  1  0.00000000  0.35772590  0.11305185  1
  N  N13  1  0.50000000  0.64227410  0.61305185  1
  N  N14  1  0.00000000  0.67148645  0.57802675  1
  N  N15  1  0.50000000  0.32851355  0.07802675  1
