# generated using pymatgen
data_Nd2CdAu2
_symmetry_space_group_name_H-M   'P 1'
_cell_length_a   3.85348171
_cell_length_b   8.17744609
_cell_length_c   8.17744609
_cell_angle_alpha   90.00000000
_cell_angle_beta   90.00000000
_cell_angle_gamma   90.00000000
_symmetry_Int_Tables_number   1
_chemical_formula_structural   Nd2CdAu2
_chemical_formula_sum   'Nd4 Cd2 Au4'
_cell_volume   257.68472866
_cell_formula_units_Z   2
loop_
 _symmetry_equiv_pos_site_id
 _symmetry_equiv_pos_as_xyz
  1  'x, y, z'
loop_
 _atom_site_type_symbol
 _atom_site_label
 _atom_site_symmetry_multiplicity
 _atom_site_fract_x
 _atom_site_fract_y
 _atom_site_fract_z
 _atom_site_occupancy
  Nd  Nd0  1  0.50000000  0.17369066  0.67369066  1
  Nd  Nd1  1  0.50000000  0.82630934  0.32630934  1
  Nd  Nd2  1  0.50000000  0.32630934  0.17369066  1
  Nd  Nd3  1  0.50000000  0.67369066  0.82630934  1
  Cd  Cd4  1  0.00000000  -0.00000000  0.00000000  1
  Cd  Cd5  1  0.00000000  0.50000000  0.50000000  1
  Au  Au6  1  -0.00000000  0.62650843  0.12650843  1
  Au  Au7  1  0.00000000  0.37349157  0.87349157  1
  Au  Au8  1  0.00000000  0.87349157  0.62650843  1
  Au  Au9  1  -0.00000000  0.12650843  0.37349157  1
