# generated using pymatgen
data_Ho3(CoGe2)2
_symmetry_space_group_name_H-M   'P 1'
_cell_length_a   5.67432085
_cell_length_b   5.67432085
_cell_length_c   7.97633309
_cell_angle_alpha   73.64994445
_cell_angle_beta   73.64994445
_cell_angle_gamma   42.96526200
_symmetry_Int_Tables_number   1
_chemical_formula_structural   Ho3(CoGe2)2
_chemical_formula_sum   'Ho3 Co2 Ge4'
_cell_volume   166.83596778
_cell_formula_units_Z   1
loop_
 _symmetry_equiv_pos_site_id
 _symmetry_equiv_pos_as_xyz
  1  'x, y, z'
loop_
 _atom_site_type_symbol
 _atom_site_label
 _atom_site_symmetry_multiplicity
 _atom_site_fract_x
 _atom_site_fract_y
 _atom_site_fract_z
 _atom_site_occupancy
  Ho  Ho0  1  0.37636100  0.37636100  0.69230300  1
  Ho  Ho1  1  0.62363900  0.62363900  0.30769700  1
  Ho  Ho2  1  0.00000000  0.00000000  0.00000000  1
  Co  Co3  1  0.30999300  0.30999300  0.36998100  1
  Co  Co4  1  0.69000700  0.69000700  0.63001900  1
  Ge  Ge5  1  0.09771900  0.09771900  0.59948200  1
  Ge  Ge6  1  0.90228100  0.90228100  0.40051800  1
  Ge  Ge7  1  0.70975500  0.70975500  0.91968300  1
  Ge  Ge8  1  0.29024500  0.29024500  0.08031700  1
