# generated using pymatgen
data_Er7(TeAu)2
_symmetry_space_group_name_H-M   'P 1'
_cell_length_a   9.23619957
_cell_length_b   9.23619957
_cell_length_c   17.06287269
_cell_angle_alpha   76.01698625
_cell_angle_beta   76.01698625
_cell_angle_gamma   25.07102402
_symmetry_Int_Tables_number   1
_chemical_formula_structural   Er7(TeAu)2
_chemical_formula_sum   'Er14 Te4 Au4'
_cell_volume   597.59805997
_cell_formula_units_Z   2
loop_
 _symmetry_equiv_pos_site_id
 _symmetry_equiv_pos_as_xyz
  1  'x, y, z'
loop_
 _atom_site_type_symbol
 _atom_site_label
 _atom_site_symmetry_multiplicity
 _atom_site_fract_x
 _atom_site_fract_y
 _atom_site_fract_z
 _atom_site_occupancy
  Er  Er0  1  0.00186700  0.00186700  0.66634700  1
  Er  Er1  1  0.99813300  0.99813300  0.33365300  1
  Er  Er2  1  0.17532600  0.17532600  0.46873400  1
  Er  Er3  1  0.82467400  0.82467400  0.53126600  1
  Er  Er4  1  0.19129100  0.19129100  0.68057700  1
  Er  Er5  1  0.80870900  0.80870900  0.31942300  1
  Er  Er6  1  0.33814200  0.33814200  0.98048500  1
  Er  Er7  1  0.66185800  0.66185800  0.01951500  1
  Er  Er8  1  0.57531900  0.57531900  0.82904200  1
  Er  Er9  1  0.42468100  0.42468100  0.17095800  1
  Er  Er10  1  0.78063000  0.78063000  0.80562900  1
  Er  Er11  1  0.21937000  0.21937000  0.19437100  1
  Er  Er12  1  0.50000000  0.50000000  0.50000000  1
  Er  Er13  1  0.00000000  0.00000000  0.00000000  1
  Te  Te14  1  0.06479000  0.06479000  0.15022200  1
  Te  Te15  1  0.93521000  0.93521000  0.84977800  1
  Te  Te16  1  0.36664500  0.36664500  0.66229600  1
  Te  Te17  1  0.63335500  0.63335500  0.33770400  1
  Au  Au18  1  0.17135700  0.17135700  0.88923500  1
  Au  Au19  1  0.82864300  0.82864300  0.11076500  1
  Au  Au20  1  0.38073800  0.38073800  0.39924000  1
  Au  Au21  1  0.61926200  0.61926200  0.60076000  1
