# generated using pymatgen
data_CaYb3Mn4O12
_symmetry_space_group_name_H-M   'P 1'
_cell_length_a   7.52266300
_cell_length_b   5.25183800
_cell_length_c   5.36431500
_cell_angle_alpha   89.99962617
_cell_angle_beta   90.00000000
_cell_angle_gamma   90.00000000
_symmetry_Int_Tables_number   1
_chemical_formula_structural   CaYb3Mn4O12
_chemical_formula_sum   'Ca1 Yb3 Mn4 O12'
_cell_volume   211.93232388
_cell_formula_units_Z   1
loop_
 _symmetry_equiv_pos_site_id
 _symmetry_equiv_pos_as_xyz
  1  'x, y, z'
loop_
 _atom_site_type_symbol
 _atom_site_label
 _atom_site_symmetry_multiplicity
 _atom_site_fract_x
 _atom_site_fract_y
 _atom_site_fract_z
 _atom_site_occupancy
  Ca  Ca0  1  0.50000000  0.99148700  0.54719600  1
  Yb  Yb1  1  0.50000000  0.51102100  0.05272800  1
  Yb  Yb2  1  0.00000000  0.01116500  0.44560200  1
  Yb  Yb3  1  0.00000000  0.48875100  0.94726800  1
  Mn  Mn4  1  0.75127000  0.49993700  0.50000700  1
  Mn  Mn5  1  0.24911900  0.99986100  0.99934700  1
  Mn  Mn6  1  0.24873000  0.49993700  0.50000700  1
  Mn  Mn7  1  0.75088100  0.99986100  0.99934700  1
  O  O8  1  0.28874700  0.69905400  0.79952400  1
  O  O9  1  0.71100500  0.79690300  0.29568800  1
  O  O10  1  0.79229000  0.29721500  0.20397000  1
  O  O11  1  0.20574500  0.20319000  0.70459800  1
  O  O12  1  0.20771000  0.29721500  0.20397000  1
  O  O13  1  0.79425500  0.20319000  0.70459800  1
  O  O14  1  0.71125300  0.69905400  0.79952400  1
  O  O15  1  0.28899500  0.79690300  0.29568800  1
  O  O16  1  0.50000000  0.08056100  0.98192600  1
  O  O17  1  0.50000000  0.42394600  0.47911800  1
  O  O18  1  0.00000000  0.91853100  0.01992500  1
  O  O19  1  0.00000000  0.58221500  0.51996700  1
