# generated using pymatgen
data_Li2MgB4(H17N3)2
_symmetry_space_group_name_H-M   'P 1'
_cell_length_a   10.84571100
_cell_length_b   10.84571100
_cell_length_c   13.96244900
_cell_angle_alpha   90.00000000
_cell_angle_beta   90.00000000
_cell_angle_gamma   90.00000000
_symmetry_Int_Tables_number   1
_chemical_formula_structural   Li2MgB4(H17N3)2
_chemical_formula_sum   'Li8 Mg4 B16 H136 N24'
_cell_volume   1642.39515597
_cell_formula_units_Z   4
loop_
 _symmetry_equiv_pos_site_id
 _symmetry_equiv_pos_as_xyz
  1  'x, y, z'
loop_
 _atom_site_type_symbol
 _atom_site_label
 _atom_site_symmetry_multiplicity
 _atom_site_fract_x
 _atom_site_fract_y
 _atom_site_fract_z
 _atom_site_occupancy
  Li  Li0  1  0.49336600  0.00031300  0.37181700  1
  Li  Li1  1  0.50663400  0.99968700  0.87181700  1
  Li  Li2  1  0.50031300  0.00663400  0.62181700  1
  Li  Li3  1  0.49968700  0.99336600  0.12181700  1
  Li  Li4  1  0.99968700  0.50663400  0.12818300  1
  Li  Li5  1  0.00031300  0.49336600  0.62818300  1
  Li  Li6  1  0.00663400  0.50031300  0.37818300  1
  Li  Li7  1  0.99336600  0.49968700  0.87818300  1
  Mg  Mg8  1  0.51020700  0.51020700  0.50000000  1
  Mg  Mg9  1  0.48979300  0.48979300  0.00000000  1
  Mg  Mg10  1  0.01020700  0.98979300  0.75000000  1
  Mg  Mg11  1  0.98979300  0.01020700  0.25000000  1
  B  B12  1  0.43957000  0.83532700  0.25113900  1
  B  B13  1  0.56043000  0.16467300  0.75113900  1
  B  B14  1  0.33532700  0.06043000  0.50113900  1
  B  B15  1  0.66467300  0.93957000  0.00113900  1
  B  B16  1  0.16467300  0.56043000  0.24886100  1
  B  B17  1  0.83532700  0.43957000  0.74886100  1
  B  B18  1  0.06043000  0.33532700  0.49886100  1
  B  B19  1  0.93957000  0.66467300  0.99886100  1
  B  B20  1  0.65569700  0.94167300  0.49891200  1
  B  B21  1  0.34430300  0.05832700  0.99891200  1
  B  B22  1  0.44167300  0.84430300  0.74891200  1
  B  B23  1  0.55832700  0.15569700  0.24891200  1
  B  B24  1  0.05832700  0.34430300  0.00108800  1
  B  B25  1  0.94167300  0.65569700  0.50108800  1
  B  B26  1  0.84430300  0.44167300  0.25108800  1
  B  B27  1  0.15569700  0.55832700  0.75108800  1
  H  H28  1  0.68829900  0.65937400  0.41770900  1
  H  H29  1  0.31170100  0.34062600  0.91770900  1
  H  H30  1  0.15937400  0.81170100  0.66770900  1
  H  H31  1  0.84062600  0.18829900  0.16770900  1
  H  H32  1  0.34062600  0.31170100  0.08229100  1
  H  H33  1  0.65937400  0.68829900  0.58229100  1
  H  H34  1  0.81170100  0.15937400  0.33229100  1
  H  H35  1  0.18829900  0.84062600  0.83229100  1
  H  H36  1  0.66250500  0.54961100  0.34126600  1
  H  H37  1  0.33749500  0.45038900  0.84126600  1
  H  H38  1  0.04961100  0.83749500  0.59126600  1
  H  H39  1  0.95038900  0.16250500  0.09126600  1
  H  H40  1  0.45038900  0.33749500  0.15873400  1
  H  H41  1  0.54961100  0.66250500  0.65873400  1
  H  H42  1  0.83749500  0.04961100  0.40873400  1
  H  H43  1  0.16250500  0.95038900  0.90873400  1
  H  H44  1  0.56830200  0.66800100  0.34714200  1
  H  H45  1  0.43169800  0.33199900  0.84714200  1
  H  H46  1  0.16800100  0.93169800  0.59714200  1
  H  H47  1  0.83199900  0.06830200  0.09714200  1
  H  H48  1  0.33199900  0.43169800  0.15285800  1
  H  H49  1  0.66800100  0.56830200  0.65285800  1
  H  H50  1  0.93169800  0.16800100  0.40285800  1
  H  H51  1  0.06830200  0.83199900  0.90285800  1
  H  H52  1  0.36036200  0.44846300  0.34413600  1
  H  H53  1  0.63963800  0.55153700  0.84413600  1
  H  H54  1  0.94846300  0.13963800  0.59413600  1
  H  H55  1  0.05153700  0.86036200  0.09413600  1
  H  H56  1  0.55153700  0.63963800  0.15586400  1
  H  H57  1  0.44846300  0.36036200  0.65586400  1
  H  H58  1  0.13963800  0.94846300  0.40586400  1
  H  H59  1  0.86036200  0.05153700  0.90586400  1
  H  H60  1  0.36521700  0.32714500  0.41310400  1
  H  H61  1  0.63478300  0.67285500  0.91310400  1
  H  H62  1  0.82714500  0.13478300  0.66310400  1
  H  H63  1  0.17285500  0.86521700  0.16310400  1
  H  H64  1  0.67285500  0.63478300  0.08689600  1
  H  H65  1  0.32714500  0.36521700  0.58689600  1
  H  H66  1  0.13478300  0.82714500  0.33689600  1
  H  H67  1  0.86521700  0.17285500  0.83689600  1
  H  H68  1  0.47903500  0.35454400  0.34126800  1
  H  H69  1  0.52096500  0.64545600  0.84126800  1
  H  H70  1  0.85454400  0.02096500  0.59126800  1
  H  H71  1  0.14545600  0.97903500  0.09126800  1
  H  H72  1  0.64545600  0.52096500  0.15873200  1
  H  H73  1  0.35454400  0.47903500  0.65873200  1
  H  H74  1  0.02096500  0.85454400  0.40873200  1
  H  H75  1  0.97903500  0.14545600  0.90873200  1
  H  H76  1  0.27575000  0.63243600  0.49589200  1
  H  H77  1  0.72425000  0.36756400  0.99589200  1
  H  H78  1  0.13243600  0.22425000  0.74589200  1
  H  H79  1  0.86756400  0.77575000  0.24589200  1
  H  H80  1  0.36756400  0.72425000  0.00410800  1
  H  H81  1  0.63243600  0.27575000  0.50410800  1
  H  H82  1  0.22425000  0.13243600  0.25410800  1
  H  H83  1  0.77575000  0.86756400  0.75410800  1
  H  H84  1  0.37704400  0.73302700  0.53254200  1
  H  H85  1  0.62295600  0.26697300  0.03254200  1
  H  H86  1  0.23302700  0.12295600  0.78254200  1
  H  H87  1  0.76697300  0.87704400  0.28254200  1
  H  H88  1  0.26697300  0.62295600  0.96745800  1
  H  H89  1  0.73302700  0.37704400  0.46745800  1
  H  H90  1  0.12295600  0.23302700  0.21745800  1
  H  H91  1  0.87704400  0.76697300  0.71745800  1
  H  H92  1  0.36604900  0.70067000  0.41903100  1
  H  H93  1  0.63395100  0.29933000  0.91903100  1
  H  H94  1  0.20067000  0.13395100  0.66903100  1
  H  H95  1  0.79933000  0.86604900  0.16903100  1
  H  H96  1  0.29933000  0.63395100  0.08096900  1
  H  H97  1  0.70067000  0.36604900  0.58096900  1
  H  H98  1  0.13395100  0.20067000  0.33096900  1
  H  H99  1  0.86604900  0.79933000  0.83096900  1
  H  H100  1  0.38750600  0.86100900  0.17544900  1
  H  H101  1  0.61249400  0.13899100  0.67544900  1
  H  H102  1  0.36100900  0.11249400  0.42544900  1
  H  H103  1  0.63899100  0.88750600  0.92544900  1
  H  H104  1  0.13899100  0.61249400  0.32455100  1
  H  H105  1  0.86100900  0.38750600  0.82455100  1
  H  H106  1  0.11249400  0.36100900  0.57455100  1
  H  H107  1  0.88750600  0.63899100  0.07455100  1
  H  H108  1  0.37627600  0.87302200  0.31831700  1
  H  H109  1  0.62372400  0.12697800  0.81831700  1
  H  H110  1  0.37302200  0.12372400  0.56831700  1
  H  H111  1  0.62697800  0.87627600  0.06831700  1
  H  H112  1  0.12697800  0.62372400  0.18168300  1
  H  H113  1  0.87302200  0.37627600  0.68168300  1
  H  H114  1  0.12372400  0.37302200  0.43168300  1
  H  H115  1  0.87627600  0.62697800  0.93168300  1
  H  H116  1  0.54333600  0.88147500  0.25358600  1
  H  H117  1  0.45666400  0.11852500  0.75358600  1
  H  H118  1  0.38147500  0.95666400  0.50358600  1
  H  H119  1  0.61852500  0.04333600  0.00358600  1
  H  H120  1  0.11852500  0.45666400  0.24641400  1
  H  H121  1  0.88147500  0.54333600  0.74641400  1
  H  H122  1  0.95666400  0.38147500  0.49641400  1
  H  H123  1  0.04333600  0.61852500  0.99641400  1
  H  H124  1  0.44807600  0.72288900  0.25668100  1
  H  H125  1  0.55192400  0.27711100  0.75668100  1
  H  H126  1  0.22288900  0.05192400  0.50668100  1
  H  H127  1  0.77711100  0.94807600  0.00668100  1
  H  H128  1  0.27711100  0.55192400  0.24331900  1
  H  H129  1  0.72288900  0.44807600  0.74331900  1
  H  H130  1  0.05192400  0.22288900  0.49331900  1
  H  H131  1  0.94807600  0.77711100  0.99331900  1
  H  H132  1  0.62835200  0.89550100  0.57644700  1
  H  H133  1  0.37164800  0.10449900  0.07644700  1
  H  H134  1  0.39550100  0.87164800  0.82644700  1
  H  H135  1  0.60449900  0.12835200  0.32644700  1
  H  H136  1  0.10449900  0.37164800  0.92355300  1
  H  H137  1  0.89550100  0.62835200  0.42355300  1
  H  H138  1  0.87164800  0.39550100  0.17355300  1
  H  H139  1  0.12835200  0.60449900  0.67355300  1
  H  H140  1  0.62140300  0.04986900  0.49517400  1
  H  H141  1  0.37859700  0.95013100  0.99517400  1
  H  H142  1  0.54986900  0.87859700  0.74517400  1
  H  H143  1  0.45013100  0.12140300  0.24517400  1
  H  H144  1  0.95013100  0.37859700  0.00482600  1
  H  H145  1  0.04986900  0.62140300  0.50482600  1
  H  H146  1  0.87859700  0.54986900  0.25482600  1
  H  H147  1  0.12140300  0.45013100  0.75482600  1
  H  H148  1  0.60852100  0.88039000  0.43457100  1
  H  H149  1  0.39147900  0.11961000  0.93457100  1
  H  H150  1  0.38039000  0.89147900  0.68457100  1
  H  H151  1  0.61961000  0.10852100  0.18457100  1
  H  H152  1  0.11961000  0.39147900  0.06542900  1
  H  H153  1  0.88039000  0.60852100  0.56542900  1
  H  H154  1  0.89147900  0.38039000  0.31542900  1
  H  H155  1  0.10852100  0.61961000  0.81542900  1
  H  H156  1  0.76803700  0.93593500  0.49074700  1
  H  H157  1  0.23196300  0.06406500  0.99074700  1
  H  H158  1  0.43593500  0.73196300  0.74074700  1
  H  H159  1  0.56406500  0.26803700  0.24074700  1
  H  H160  1  0.06406500  0.23196300  0.00925300  1
  H  H161  1  0.93593500  0.76803700  0.50925300  1
  H  H162  1  0.73196300  0.43593500  0.25925300  1
  H  H163  1  0.26803700  0.56406500  0.75925300  1
  N  N164  1  0.61891200  0.60795300  0.38826000  1
  N  N165  1  0.38108800  0.39204700  0.88826000  1
  N  N166  1  0.10795300  0.88108800  0.63826000  1
  N  N167  1  0.89204700  0.11891200  0.13826000  1
  N  N168  1  0.39204700  0.38108800  0.11174000  1
  N  N169  1  0.60795300  0.61891200  0.61174000  1
  N  N170  1  0.88108800  0.10795300  0.36174000  1
  N  N171  1  0.11891200  0.89204700  0.86174000  1
  N  N172  1  0.41819600  0.39732400  0.38688900  1
  N  N173  1  0.58180400  0.60267600  0.88688900  1
  N  N174  1  0.89732400  0.08180400  0.63688900  1
  N  N175  1  0.10267600  0.91819600  0.13688900  1
  N  N176  1  0.60267600  0.58180400  0.11311100  1
  N  N177  1  0.39732400  0.41819600  0.61311100  1
  N  N178  1  0.08180400  0.89732400  0.36311100  1
  N  N179  1  0.91819600  0.10267600  0.86311100  1
  N  N180  1  0.36460900  0.66131100  0.48577800  1
  N  N181  1  0.63539100  0.33868900  0.98577800  1
  N  N182  1  0.16131100  0.13539100  0.73577800  1
  N  N183  1  0.83868900  0.86460900  0.23577800  1
  N  N184  1  0.33868900  0.63539100  0.01422200  1
  N  N185  1  0.66131100  0.36460900  0.51422200  1
  N  N186  1  0.13539100  0.16131100  0.26422200  1
  N  N187  1  0.86460900  0.83868900  0.76422200  1
