# generated using pymatgen
data_Er2Mn2O7
_symmetry_space_group_name_H-M   'P 1'
_cell_length_a   7.05819568
_cell_length_b   7.05819568
_cell_length_c   7.05819567
_cell_angle_alpha   60.00000000
_cell_angle_beta   59.99999998
_cell_angle_gamma   59.99999998
_symmetry_Int_Tables_number   1
_chemical_formula_structural   Er2Mn2O7
_chemical_formula_sum   'Er4 Mn4 O14'
_cell_volume   248.63718759
_cell_formula_units_Z   2
loop_
 _symmetry_equiv_pos_site_id
 _symmetry_equiv_pos_as_xyz
  1  'x, y, z'
loop_
 _atom_site_type_symbol
 _atom_site_label
 _atom_site_symmetry_multiplicity
 _atom_site_fract_x
 _atom_site_fract_y
 _atom_site_fract_z
 _atom_site_occupancy
  O  O0  1  0.33166589  0.91833380  0.91833308  1
  O  O1  1  0.08166676  0.66833400  0.66833289  1
  O  O2  1  0.91833246  0.33166694  0.91833322  1
  O  O3  1  0.91833232  0.91833380  0.33166678  1
  O  O4  1  0.33166603  0.33166694  0.91833334  1
  O  O5  1  0.33166589  0.91833380  0.33166690  1
  O  O6  1  0.08166676  0.66833400  0.08166672  1
  O  O7  1  0.66833333  0.08166714  0.66833303  1
  O  O8  1  0.37500004  0.37500057  0.37499988  1
  O  O9  1  0.62499917  0.62500037  0.62500006  1
  O  O10  1  0.91833246  0.33166694  0.33166704  1
  O  O11  1  0.66833333  0.08166714  0.08166686  1
  O  O12  1  0.08166690  0.08166714  0.66833316  1
  O  O13  1  0.66833319  0.66833400  0.08166659  1
  Mn  Mn14  1  0.99999966  0.49999960  0.00000090  1
  Mn  Mn15  1  0.50000023  0.00000000  0.00000042  1
  Mn  Mn16  1  0.00000000  0.00000000  0.49999965  1
  Mn  Mn17  1  0.00000000  0.00000000  0.00000000  1
  Er  Er18  1  0.50000023  0.00000000  0.50000007  1
  Er  Er19  1  0.99999966  0.49999960  0.50000055  1
  Er  Er20  1  0.49999990  0.49999960  0.99999990  1
  Er  Er21  1  0.49999990  0.49999960  0.49999955  1
