# generated using pymatgen
data_Gd5Si2BO13
_symmetry_space_group_name_H-M   'P 1'
_cell_length_a   6.92214100
_cell_length_b   9.34855300
_cell_length_c   9.37893451
_cell_angle_alpha   60.22649634
_cell_angle_beta   90.00000000
_cell_angle_gamma   90.00000000
_symmetry_Int_Tables_number   1
_chemical_formula_structural   Gd5Si2BO13
_chemical_formula_sum   'Gd10 Si4 B2 O26'
_cell_volume   526.81199582
_cell_formula_units_Z   2
loop_
 _symmetry_equiv_pos_site_id
 _symmetry_equiv_pos_as_xyz
  1  'x, y, z'
loop_
 _atom_site_type_symbol
 _atom_site_label
 _atom_site_symmetry_multiplicity
 _atom_site_fract_x
 _atom_site_fract_y
 _atom_site_fract_z
 _atom_site_occupancy
  Gd  Gd0  1  0.50000000  0.98538300  0.77462700  1
  Gd  Gd1  1  0.50000000  0.24139900  0.00739300  1
  Gd  Gd2  1  0.50000000  0.75196900  0.22620800  1
  Gd  Gd3  1  0.00000000  0.97735700  0.24438500  1
  Gd  Gd4  1  0.00000000  0.75909800  0.00773300  1
  Gd  Gd5  1  0.00000000  0.24562600  0.75706200  1
  Gd  Gd6  1  0.75059600  0.35309300  0.32548600  1
  Gd  Gd7  1  0.25088400  0.66420400  0.67016000  1
  Gd  Gd8  1  0.74911600  0.66420400  0.67016000  1
  Gd  Gd9  1  0.24940400  0.35309300  0.32548600  1
  Si  Si10  1  0.50000000  0.40200700  0.62903000  1
  Si  Si11  1  0.50000000  0.97261500  0.39770600  1
  Si  Si12  1  0.00000000  0.36553500  0.03124000  1
  Si  Si13  1  0.00000000  0.03256400  0.59593000  1
  B  B14  1  0.50000000  0.62986600  0.96737600  1
  B  B15  1  0.00000000  0.59742900  0.37391400  1
  O  O16  1  0.67770700  0.73908200  0.91428300  1
  O  O17  1  0.68834900  0.34535600  0.75101100  1
  O  O18  1  0.68920300  0.90660800  0.34257500  1
  O  O19  1  0.19016700  0.24758700  0.09311300  1
  O  O20  1  0.17682600  0.65071500  0.26082200  1
  O  O21  1  0.19002000  0.09310700  0.65748100  1
  O  O22  1  0.80983300  0.24758700  0.09311300  1
  O  O23  1  0.82317400  0.65071500  0.26082200  1
  O  O24  1  0.80998000  0.09310700  0.65748100  1
  O  O25  1  0.32229300  0.73908200  0.91428300  1
  O  O26  1  0.31165100  0.34535600  0.75101100  1
  O  O27  1  0.31079700  0.90660800  0.34257500  1
  O  O28  1  0.50000000  0.52081100  0.15028100  1
  O  O29  1  0.50000000  0.32748000  0.50546300  1
  O  O30  1  0.50000000  0.17221400  0.32041400  1
  O  O31  1  0.00000000  0.48800100  0.83242600  1
  O  O32  1  0.00000000  0.66789700  0.48396000  1
  O  O33  1  0.00000000  0.83236100  0.67474600  1
  O  O34  1  0.50000000  0.53559400  0.87541000  1
  O  O35  1  0.50000000  0.60402200  0.52695300  1
  O  O36  1  0.50000000  0.87024200  0.60000800  1
  O  O37  1  0.00000000  0.47172200  0.12746000  1
  O  O38  1  0.00000000  0.41172100  0.46423800  1
  O  O39  1  0.00000000  0.13297700  0.39444700  1
  O  O40  1  0.50000000  0.00120900  0.00510400  1
  O  O41  1  0.00000000  0.00339600  0.99662500  1
