# generated using pymatgen
data_Ba3UFeSe6
_symmetry_space_group_name_H-M   'P 1'
_cell_length_a   8.66148485
_cell_length_b   8.66148485
_cell_length_c   8.66148521
_cell_angle_alpha   94.09701512
_cell_angle_beta   94.09701512
_cell_angle_gamma   94.09701897
_symmetry_Int_Tables_number   1
_chemical_formula_structural   Ba3UFeSe6
_chemical_formula_sum   'Ba6 U2 Fe2 Se12'
_cell_volume   644.56271634
_cell_formula_units_Z   2
loop_
 _symmetry_equiv_pos_site_id
 _symmetry_equiv_pos_as_xyz
  1  'x, y, z'
loop_
 _atom_site_type_symbol
 _atom_site_label
 _atom_site_symmetry_multiplicity
 _atom_site_fract_x
 _atom_site_fract_y
 _atom_site_fract_z
 _atom_site_occupancy
  Ba  Ba0  1  0.13352600  0.36648600  0.74999900  1
  Ba  Ba1  1  0.36648600  0.74999900  0.13352600  1
  Ba  Ba2  1  0.74999900  0.13352600  0.36648600  1
  Ba  Ba3  1  0.63352600  0.24999900  0.86648600  1
  Ba  Ba4  1  0.24999900  0.86648600  0.63352600  1
  Ba  Ba5  1  0.86648600  0.63352600  0.24999900  1
  U  U6  1  0.24999600  0.24999600  0.24999600  1
  U  U7  1  0.74999600  0.74999600  0.74999600  1
  Fe  Fe8  1  0.50000000  0.50000000  0.50000000  1
  Fe  Fe9  1  0.00000000  0.00000000  0.00000000  1
  Se  Se10  1  0.41163600  0.20241800  0.53606000  1
  Se  Se11  1  0.20241800  0.53606000  0.41163600  1
  Se  Se12  1  0.53606000  0.41163600  0.20241800  1
  Se  Se13  1  0.91163600  0.03606000  0.70241800  1
  Se  Se14  1  0.03606000  0.70241800  0.91163600  1
  Se  Se15  1  0.70241800  0.91163600  0.03606000  1
  Se  Se16  1  0.58836300  0.79759700  0.46395200  1
  Se  Se17  1  0.79759700  0.46395200  0.58836300  1
  Se  Se18  1  0.46395200  0.58836300  0.79759700  1
  Se  Se19  1  0.08836300  0.96395200  0.29759700  1
  Se  Se20  1  0.96395200  0.29759700  0.08836300  1
  Se  Se21  1  0.29759700  0.08836300  0.96395200  1
