# generated using pymatgen
data_Ba10PrY4(CuO2)20
_symmetry_space_group_name_H-M   'P 1'
_cell_length_a   3.90250023
_cell_length_b   3.90103251
_cell_length_c   68.38608597
_cell_angle_alpha   88.36558157
_cell_angle_beta   90.00000000
_cell_angle_gamma   90.00000000
_symmetry_Int_Tables_number   1
_chemical_formula_structural   Ba10PrY4(CuO2)20
_chemical_formula_sum   'Ba10 Pr1 Y4 Cu20 O40'
_cell_volume   1040.67118893
_cell_formula_units_Z   1
loop_
 _symmetry_equiv_pos_site_id
 _symmetry_equiv_pos_as_xyz
  1  'x, y, z'
loop_
 _atom_site_type_symbol
 _atom_site_label
 _atom_site_symmetry_multiplicity
 _atom_site_fract_x
 _atom_site_fract_y
 _atom_site_fract_z
 _atom_site_occupancy
  Ba  Ba0  1  0.50000000  0.92713204  0.14573592  1
  Ba  Ba1  1  0.50000000  0.32715009  0.34569982  1
  Ba  Ba2  1  0.50000000  0.72715682  0.54568637  1
  Ba  Ba3  1  0.50000000  0.12712988  0.74574023  1
  Ba  Ba4  1  0.50000000  0.52730346  0.94539308  1
  Ba  Ba5  1  0.50000000  0.47269654  0.05460692  1
  Ba  Ba6  1  0.50000000  0.87287012  0.25425977  1
  Ba  Ba7  1  0.50000000  0.27284318  0.45431363  1
  Ba  Ba8  1  0.50000000  0.67284991  0.65430018  1
  Ba  Ba9  1  0.50000000  0.07286796  0.85426408  1
  Pr  Pr10  1  0.50000000  0.50000000  -0.00000000  1
  Y  Y11  1  0.50000000  0.90000468  0.19999065  1
  Y  Y12  1  0.50000000  0.30000182  0.39999636  1
  Y  Y13  1  0.50000000  0.69999818  0.60000364  1
  Y  Y14  1  0.50000000  0.09999532  0.80000935  1
  Cu  Cu15  1  -0.00000000  0.95736931  0.08526138  1
  Cu  Cu16  1  0.00000000  0.35740563  0.28518875  1
  Cu  Cu17  1  0.00000000  0.75740494  0.48519012  1
  Cu  Cu18  1  -0.00000000  0.15740777  0.68518447  1
  Cu  Cu19  1  0.00000000  0.55740379  0.88519242  1
  Cu  Cu20  1  0.00000000  0.44259621  0.11480758  1
  Cu  Cu21  1  -0.00000000  0.84259223  0.31481553  1
  Cu  Cu22  1  0.00000000  0.24259506  0.51480988  1
  Cu  Cu23  1  0.00000000  0.64259437  0.71481125  1
  Cu  Cu24  1  -0.00000000  0.04263069  0.91473862  1
  Cu  Cu25  1  -0.00000000  0.98734182  0.02531636  1
  Cu  Cu26  1  -0.00000000  0.38777710  0.22444581  1
  Cu  Cu27  1  0.00000000  0.78778086  0.42443827  1
  Cu  Cu28  1  -0.00000000  0.18778185  0.62443631  1
  Cu  Cu29  1  0.00000000  0.58776807  0.82446385  1
  Cu  Cu30  1  -0.00000000  0.41223193  0.17553615  1
  Cu  Cu31  1  0.00000000  0.81221815  0.37556369  1
  Cu  Cu32  1  -0.00000000  0.21221914  0.57556173  1
  Cu  Cu33  1  -0.00000000  0.61222290  0.77555419  1
  Cu  Cu34  1  -0.00000000  0.01265818  0.97468364  1
  O  O35  1  -0.00000000  0.91049092  0.17901816  1
  O  O36  1  0.00000000  0.31049438  0.37901124  1
  O  O37  1  0.00000000  0.71049742  0.57900516  1
  O  O38  1  -0.00000000  0.11049079  0.77901842  1
  O  O39  1  0.00000000  0.51123719  0.97752561  1
  O  O40  1  0.00000000  0.48876281  0.02247439  1
  O  O41  1  -0.00000000  0.88950921  0.22098158  1
  O  O42  1  0.00000000  0.28950258  0.42099484  1
  O  O43  1  0.00000000  0.68950562  0.62098876  1
  O  O44  1  -0.00000000  0.08950908  0.82098184  1
  O  O45  1  0.00000000  0.94359226  0.11281548  1
  O  O46  1  0.00000000  0.34360099  0.31279803  1
  O  O47  1  0.00000000  0.74359151  0.51281698  1
  O  O48  1  0.00000000  0.14360093  0.71279814  1
  O  O49  1  0.00000000  0.54362976  0.91274049  1
  O  O50  1  0.00000000  0.45637024  0.08725951  1
  O  O51  1  0.00000000  0.85639907  0.28720186  1
  O  O52  1  0.00000000  0.25640849  0.48718302  1
  O  O53  1  0.00000000  0.65639901  0.68720197  1
  O  O54  1  0.00000000  0.05640774  0.88718452  1
  O  O55  1  0.50000000  0.98871240  0.02257521  1
  O  O56  1  0.50000000  0.38944688  0.22110624  1
  O  O57  1  0.50000000  0.78944100  0.42111800  1
  O  O58  1  0.50000000  0.18943977  0.62112046  1
  O  O59  1  0.50000000  0.58944609  0.82110783  1
  O  O60  1  0.50000000  0.41055391  0.17889217  1
  O  O61  1  0.50000000  0.81056023  0.37887954  1
  O  O62  1  0.50000000  0.21055900  0.57888200  1
  O  O63  1  0.50000000  0.61055312  0.77889376  1
  O  O64  1  0.50000000  0.01128760  0.97742479  1
  O  O65  1  -0.00000000  0.97085469  0.05829062  1
  O  O66  1  -0.00000000  0.37096717  0.25806567  1
  O  O67  1  -0.00000000  0.77097081  0.45805838  1
  O  O68  1  0.00000000  0.17096259  0.65807482  1
  O  O69  1  -0.00000000  0.57096984  0.85806032  1
  O  O70  1  0.00000000  0.42903016  0.14193968  1
  O  O71  1  0.00000000  0.82903741  0.34192518  1
  O  O72  1  -0.00000000  0.22902919  0.54194162  1
  O  O73  1  -0.00000000  0.62903283  0.74193433  1
  O  O74  1  -0.00000000  0.02914531  0.94170938  1
