# generated using pymatgen
data_Cs3CdBr5
_symmetry_space_group_name_H-M   'P 1'
_cell_length_a   10.71600408
_cell_length_b   10.71600408
_cell_length_c   10.71600408
_cell_angle_alpha   125.21087338
_cell_angle_beta   125.21087338
_cell_angle_gamma   81.18904631
_symmetry_Int_Tables_number   1
_chemical_formula_structural   Cs3CdBr5
_chemical_formula_sum   'Cs6 Cd2 Br10'
_cell_volume   791.27049299
_cell_formula_units_Z   2
loop_
 _symmetry_equiv_pos_site_id
 _symmetry_equiv_pos_as_xyz
  1  'x, y, z'
loop_
 _atom_site_type_symbol
 _atom_site_label
 _atom_site_symmetry_multiplicity
 _atom_site_fract_x
 _atom_site_fract_y
 _atom_site_fract_z
 _atom_site_occupancy
  Cs  Cs0  1  0.16069300  0.66069300  0.82138600  1
  Cs  Cs1  1  0.83930700  0.33930700  0.17861400  1
  Cs  Cs2  1  0.66069300  0.83930700  0.50000000  1
  Cs  Cs3  1  0.33930700  0.16069300  0.50000000  1
  Cs  Cs4  1  0.75000000  0.75000000  0.00000000  1
  Cs  Cs5  1  0.25000000  0.25000000  0.00000000  1
  Cd  Cd6  1  0.25000000  0.75000000  0.50000000  1
  Cd  Cd7  1  0.75000000  0.25000000  0.50000000  1
  Br  Br8  1  0.79976400  0.29976400  0.79734400  1
  Br  Br9  1  0.50241900  0.00241900  0.20265600  1
  Br  Br10  1  0.29976400  0.50241900  0.50000000  1
  Br  Br11  1  0.00241900  0.79976400  0.50000000  1
  Br  Br12  1  0.20023600  0.70023600  0.20265600  1
  Br  Br13  1  0.49758100  0.99758100  0.79734400  1
  Br  Br14  1  0.70023600  0.49758100  0.50000000  1
  Br  Br15  1  0.99758100  0.20023600  0.50000000  1
  Br  Br16  1  0.00000000  0.00000000  0.00000000  1
  Br  Br17  1  0.50000000  0.50000000  0.00000000  1
