# generated using pymatgen
data_SrCoF5
_symmetry_space_group_name_H-M   'P 1'
_cell_length_a   7.35619500
_cell_length_b   7.06136200
_cell_length_c   14.92272654
_cell_angle_alpha   85.47069676
_cell_angle_beta   90.00000000
_cell_angle_gamma   90.00000000
_symmetry_Int_Tables_number   1
_chemical_formula_structural   SrCoF5
_chemical_formula_sum   'Sr8 Co8 F40'
_cell_volume   772.73662899
_cell_formula_units_Z   8
loop_
 _symmetry_equiv_pos_site_id
 _symmetry_equiv_pos_as_xyz
  1  'x, y, z'
loop_
 _atom_site_type_symbol
 _atom_site_label
 _atom_site_symmetry_multiplicity
 _atom_site_fract_x
 _atom_site_fract_y
 _atom_site_fract_z
 _atom_site_occupancy
  Sr  Sr0  1  0.34543500  0.99692500  0.13549000  1
  Sr  Sr1  1  0.65456500  0.00307500  0.86451000  1
  Sr  Sr2  1  0.84543500  0.00307500  0.36451000  1
  Sr  Sr3  1  0.15456500  0.99692500  0.63549000  1
  Sr  Sr4  1  0.84229300  0.30974500  0.08602500  1
  Sr  Sr5  1  0.15770700  0.69025500  0.91397500  1
  Sr  Sr6  1  0.34229300  0.69025500  0.41397500  1
  Sr  Sr7  1  0.65770700  0.30974500  0.58602500  1
  Co  Co8  1  0.87842400  0.50647300  0.33725700  1
  Co  Co9  1  0.12157600  0.49352700  0.66274300  1
  Co  Co10  1  0.37842400  0.49352700  0.16274300  1
  Co  Co11  1  0.62157600  0.50647300  0.83725700  1
  Co  Co12  1  0.81595300  0.80855500  0.12641900  1
  Co  Co13  1  0.18404700  0.19144500  0.87358100  1
  Co  Co14  1  0.31595300  0.19144500  0.37358100  1
  Co  Co15  1  0.68404700  0.80855500  0.62641900  1
  F  F16  1  0.30421600  0.67959500  0.06757200  1
  F  F17  1  0.69578400  0.32040500  0.93242800  1
  F  F18  1  0.80421600  0.32040500  0.43242800  1
  F  F19  1  0.19578400  0.67959500  0.56757200  1
  F  F20  1  0.91701000  0.65563800  0.04097600  1
  F  F21  1  0.08299000  0.34436200  0.95902400  1
  F  F22  1  0.41701000  0.34436200  0.45902400  1
  F  F23  1  0.58299000  0.65563800  0.54097600  1
  F  F24  1  0.49138600  0.99740900  0.61003500  1
  F  F25  1  0.50861400  0.00259100  0.38996500  1
  F  F26  1  0.99138600  0.00259100  0.88996500  1
  F  F27  1  0.00861400  0.99740900  0.11003500  1
  F  F28  1  0.69631500  0.96742800  0.20659400  1
  F  F29  1  0.30368500  0.03257200  0.79340600  1
  F  F30  1  0.19631500  0.03257200  0.29340600  1
  F  F31  1  0.80368500  0.96742800  0.70659400  1
  F  F32  1  0.94739500  0.68545700  0.22816600  1
  F  F33  1  0.05260500  0.31454300  0.77183400  1
  F  F34  1  0.44739500  0.31454300  0.27183400  1
  F  F35  1  0.55260500  0.68545700  0.72816600  1
  F  F36  1  0.68003200  0.95727600  0.03441900  1
  F  F37  1  0.31996800  0.04272400  0.96558100  1
  F  F38  1  0.18003200  0.04272400  0.46558100  1
  F  F39  1  0.81996800  0.95727600  0.53441900  1
  F  F40  1  0.67041500  0.65711200  0.35086900  1
  F  F41  1  0.32958500  0.34288800  0.64913100  1
  F  F42  1  0.17041500  0.34288800  0.14913100  1
  F  F43  1  0.82958500  0.65711200  0.85086900  1
  F  F44  1  0.83873500  0.31636400  0.25946600  1
  F  F45  1  0.16126500  0.68363600  0.74053400  1
  F  F46  1  0.33873500  0.68363600  0.24053400  1
  F  F47  1  0.66126500  0.31636400  0.75946600  1
  F  F48  1  0.49882800  0.30481300  0.09841600  1
  F  F49  1  0.50117200  0.69518700  0.90158400  1
  F  F50  1  0.99882800  0.69518700  0.40158400  1
  F  F51  1  0.00117200  0.30481300  0.59841600  1
  F  F52  1  0.63398700  0.60605900  0.14674100  1
  F  F53  1  0.36601300  0.39394100  0.85325900  1
  F  F54  1  0.13398700  0.39394100  0.35325900  1
  F  F55  1  0.86601300  0.60605900  0.64674100  1
