# generated using pymatgen
data_U(Al3Fe)3
_symmetry_space_group_name_H-M   'P 1'
_cell_length_a   6.72075933
_cell_length_b   6.72075933
_cell_length_c   6.69815079
_cell_angle_alpha   82.00728000
_cell_angle_beta   82.00728000
_cell_angle_gamma   135.85532569
_symmetry_Int_Tables_number   1
_chemical_formula_structural   U(Al3Fe)3
_chemical_formula_sum   'U1 Al9 Fe3'
_cell_volume   195.75879375
_cell_formula_units_Z   1
loop_
 _symmetry_equiv_pos_site_id
 _symmetry_equiv_pos_as_xyz
  1  'x, y, z'
loop_
 _atom_site_type_symbol
 _atom_site_label
 _atom_site_symmetry_multiplicity
 _atom_site_fract_x
 _atom_site_fract_y
 _atom_site_fract_z
 _atom_site_occupancy
  U  U0  1  0.00000000  0.00000000  0.00000000  1
  Al  Al1  1  0.48638000  0.70832300  0.78779900  1
  Al  Al2  1  0.51362000  0.29167700  0.21220100  1
  Al  Al3  1  0.29167700  0.51362000  0.21220100  1
  Al  Al4  1  0.70832300  0.48638000  0.78779900  1
  Al  Al5  1  0.99888700  0.64555700  0.33859500  1
  Al  Al6  1  0.00111300  0.35444300  0.66140500  1
  Al  Al7  1  0.35444300  0.00111300  0.66140500  1
  Al  Al8  1  0.64555700  0.99888700  0.33859500  1
  Al  Al9  1  0.00000000  0.00000000  0.50000000  1
  Fe  Fe10  1  0.50000000  0.50000000  0.50000000  1
  Fe  Fe11  1  0.50000000  0.00000000  0.00000000  1
  Fe  Fe12  1  0.00000000  0.50000000  0.00000000  1
