# generated using pymatgen
data_MnCr2(SeS)2
_symmetry_space_group_name_H-M   'P 1'
_cell_length_a   7.35774446
_cell_length_b   7.35774446
_cell_length_c   7.35774446
_cell_angle_alpha   60.00000000
_cell_angle_beta   60.00000000
_cell_angle_gamma   60.00000000
_symmetry_Int_Tables_number   1
_chemical_formula_structural   MnCr2(SeS)2
_chemical_formula_sum   'Mn2 Cr4 Se4 S4'
_cell_volume   281.65606198
_cell_formula_units_Z   2
loop_
 _symmetry_equiv_pos_site_id
 _symmetry_equiv_pos_as_xyz
  1  'x, y, z'
loop_
 _atom_site_type_symbol
 _atom_site_label
 _atom_site_symmetry_multiplicity
 _atom_site_fract_x
 _atom_site_fract_y
 _atom_site_fract_z
 _atom_site_occupancy
  Mn  Mn0  1  0.75000000  0.75000000  0.75000000  1
  Mn  Mn1  1  0.50000000  0.50000000  0.50000000  1
  Cr  Cr2  1  0.63855500  0.12048200  0.12048200  1
  Cr  Cr3  1  0.12048200  0.63855500  0.12048200  1
  Cr  Cr4  1  0.12048200  0.12048200  0.63855500  1
  Cr  Cr5  1  0.12048200  0.12048200  0.12048200  1
  Se  Se6  1  0.90561700  0.36479400  0.36479400  1
  Se  Se7  1  0.36479400  0.90561700  0.36479400  1
  Se  Se8  1  0.36479400  0.36479400  0.90561700  1
  Se  Se9  1  0.36479400  0.36479400  0.36479400  1
  S  S10  1  0.34152400  0.88615900  0.88615900  1
  S  S11  1  0.88615900  0.34152400  0.88615900  1
  S  S12  1  0.88615900  0.88615900  0.34152400  1
  S  S13  1  0.88615900  0.88615900  0.88615900  1
