# generated using pymatgen
data_Sb2Pt3
_symmetry_space_group_name_H-M   'P 1'
_cell_length_a   6.99532989
_cell_length_b   6.99532989
_cell_length_c   6.99532989
_cell_angle_alpha   134.54184219
_cell_angle_beta   123.83404533
_cell_angle_gamma   75.03557544
_symmetry_Int_Tables_number   1
_chemical_formula_structural   Sb2Pt3
_chemical_formula_sum   'Sb4 Pt6'
_cell_volume   197.53588403
_cell_formula_units_Z   2
loop_
 _symmetry_equiv_pos_site_id
 _symmetry_equiv_pos_as_xyz
  1  'x, y, z'
loop_
 _atom_site_type_symbol
 _atom_site_label
 _atom_site_symmetry_multiplicity
 _atom_site_fract_x
 _atom_site_fract_y
 _atom_site_fract_z
 _atom_site_occupancy
  Sb  Sb0  1  0.60479200  0.34473800  0.26005500  1
  Sb  Sb1  1  0.39520800  0.65526200  0.73994500  1
  Sb  Sb2  1  0.91531700  0.15526200  0.76005500  1
  Sb  Sb3  1  0.08468300  0.84473800  0.23994500  1
  Pt  Pt4  1  0.52037900  0.89086500  0.62951400  1
  Pt  Pt5  1  0.47962100  0.10913500  0.37048600  1
  Pt  Pt6  1  0.26135100  0.39086500  0.87048600  1
  Pt  Pt7  1  0.73864900  0.60913500  0.12951400  1
  Pt  Pt8  1  0.00000000  0.75000000  0.75000000  1
  Pt  Pt9  1  0.00000000  0.25000000  0.25000000  1
