# generated using pymatgen
data_TbHoFe4
_symmetry_space_group_name_H-M   'P 1'
_cell_length_a   5.15187536
_cell_length_b   5.15187536
_cell_length_c   5.15187536
_cell_angle_alpha   90.00000000
_cell_angle_beta   60.00000000
_cell_angle_gamma   120.00000000
_symmetry_Int_Tables_number   1
_chemical_formula_structural   TbHoFe4
_chemical_formula_sum   'Tb1 Ho1 Fe4'
_cell_volume   96.68988501
_cell_formula_units_Z   1
loop_
 _symmetry_equiv_pos_site_id
 _symmetry_equiv_pos_as_xyz
  1  'x, y, z'
loop_
 _atom_site_type_symbol
 _atom_site_label
 _atom_site_symmetry_multiplicity
 _atom_site_fract_x
 _atom_site_fract_y
 _atom_site_fract_z
 _atom_site_occupancy
  Tb  Tb0  1  0.00000000  0.00000000  0.00000000  1
  Ho  Ho1  1  0.50000000  0.75000000  0.75000000  1
  Fe  Fe2  1  0.75002600  0.37501300  0.87496200  1
  Fe  Fe3  1  0.24997400  0.37501300  0.37501300  1
  Fe  Fe4  1  0.24997400  0.87496200  0.37501300  1
  Fe  Fe5  1  0.75002600  0.37501300  0.37501300  1
