# generated using pymatgen
data_PrNdSb
_symmetry_space_group_name_H-M   'P 1'
_cell_length_a   9.48986177
_cell_length_b   9.48986177
_cell_length_c   9.48986177
_cell_angle_alpha   151.92356189
_cell_angle_beta   151.92356189
_cell_angle_gamma   40.12493798
_symmetry_Int_Tables_number   1
_chemical_formula_structural   PrNdSb
_chemical_formula_sum   'Pr2 Nd2 Sb2'
_cell_volume   188.93990819
_cell_formula_units_Z   2
loop_
 _symmetry_equiv_pos_site_id
 _symmetry_equiv_pos_as_xyz
  1  'x, y, z'
loop_
 _atom_site_type_symbol
 _atom_site_label
 _atom_site_symmetry_multiplicity
 _atom_site_fract_x
 _atom_site_fract_y
 _atom_site_fract_z
 _atom_site_occupancy
  Pr  Pr0  1  0.67935100  0.67935100  0.00000000  1
  Pr  Pr1  1  0.32064900  0.32064900  0.00000000  1
  Nd  Nd2  1  0.00000000  0.50000000  0.50000000  1
  Nd  Nd3  1  0.50000000  0.00000000  0.50000000  1
  Sb  Sb4  1  0.86291600  0.86291600  0.00000000  1
  Sb  Sb5  1  0.13708400  0.13708400  0.00000000  1
