# generated using pymatgen
data_LiSn2(PO4)3
_symmetry_space_group_name_H-M   'P 1'
_cell_length_a   8.86695300
_cell_length_b   8.58806500
_cell_length_c   14.89129057
_cell_angle_alpha   55.27665679
_cell_angle_beta   90.00000000
_cell_angle_gamma   90.00000000
_symmetry_Int_Tables_number   1
_chemical_formula_structural   LiSn2(PO4)3
_chemical_formula_sum   'Li4 Sn8 P12 O48'
_cell_volume   932.02467275
_cell_formula_units_Z   4
loop_
 _symmetry_equiv_pos_site_id
 _symmetry_equiv_pos_as_xyz
  1  'x, y, z'
loop_
 _atom_site_type_symbol
 _atom_site_label
 _atom_site_symmetry_multiplicity
 _atom_site_fract_x
 _atom_site_fract_y
 _atom_site_fract_z
 _atom_site_occupancy
  Li  Li0  1  0.71244200  0.98893400  0.32291800  1
  Li  Li1  1  0.21244200  0.01106600  0.17708200  1
  Li  Li2  1  0.78755800  0.98893400  0.82291800  1
  Li  Li3  1  0.28755800  0.01106600  0.67708200  1
  Sn  Sn4  1  0.96942800  0.36959900  0.88210300  1
  Sn  Sn5  1  0.46942800  0.63040100  0.61789700  1
  Sn  Sn6  1  0.53609400  0.14298600  0.10928600  1
  Sn  Sn7  1  0.03609400  0.85701400  0.39071400  1
  Sn  Sn8  1  0.96390600  0.14298600  0.60928600  1
  Sn  Sn9  1  0.46390600  0.85701400  0.89071400  1
  Sn  Sn10  1  0.53057200  0.36959900  0.38210300  1
  Sn  Sn11  1  0.03057200  0.63040100  0.11789700  1
  P  P12  1  0.24882900  0.45757400  0.00701700  1
  P  P13  1  0.12004800  0.74633300  0.64978500  1
  P  P14  1  0.38994600  0.03419500  0.35420800  1
  P  P15  1  0.88994600  0.96580500  0.14579200  1
  P  P16  1  0.62004800  0.25366700  0.85021500  1
  P  P17  1  0.74882900  0.54242600  0.49298300  1
  P  P18  1  0.25117100  0.45757400  0.50701700  1
  P  P19  1  0.37995200  0.74633300  0.14978500  1
  P  P20  1  0.11005400  0.03419500  0.85420800  1
  P  P21  1  0.61005400  0.96580500  0.64579200  1
  P  P22  1  0.87995200  0.25366700  0.35021500  1
  P  P23  1  0.75117100  0.54242600  0.99298300  1
  O  O24  1  0.61964500  0.81360600  0.62200900  1
  O  O25  1  0.62700500  0.39481300  0.05866800  1
  O  O26  1  0.81627500  0.53229000  0.90039000  1
  O  O27  1  0.91236000  0.10340500  0.32471100  1
  O  O28  1  0.13133300  0.48480500  0.92379500  1
  O  O29  1  0.29193600  0.71164200  0.67188800  1
  O  O30  1  0.08730700  0.83678000  0.52853000  1
  O  O31  1  0.50873600  0.09378700  0.26265200  1
  O  O32  1  0.23387900  0.01145200  0.31406200  1
  O  O33  1  0.31944400  0.25448200  0.06437900  1
  O  O34  1  0.02085900  0.57042600  0.72048400  1
  O  O35  1  0.44416900  0.84206400  0.45327300  1
  O  O36  1  0.94416900  0.15793600  0.04672700  1
  O  O37  1  0.52085900  0.42957400  0.77951600  1
  O  O38  1  0.81944400  0.74551800  0.43562100  1
  O  O39  1  0.73387900  0.98854800  0.18593800  1
  O  O40  1  0.00873600  0.90621300  0.23734800  1
  O  O41  1  0.58730700  0.16322000  0.97147000  1
  O  O42  1  0.79193600  0.28835800  0.82811200  1
  O  O43  1  0.63133300  0.51519500  0.57620500  1
  O  O44  1  0.41236000  0.89659500  0.17528900  1
  O  O45  1  0.31627500  0.46771000  0.59961000  1
  O  O46  1  0.11964500  0.18639400  0.87799100  1
  O  O47  1  0.12700500  0.60518700  0.44133200  1
  O  O48  1  0.87299500  0.39481300  0.55866800  1
  O  O49  1  0.88035500  0.81360600  0.12200900  1
  O  O50  1  0.68372500  0.53229000  0.40039000  1
  O  O51  1  0.58764000  0.10340500  0.82471100  1
  O  O52  1  0.36866700  0.48480500  0.42379500  1
  O  O53  1  0.20806400  0.71164200  0.17188800  1
  O  O54  1  0.41269300  0.83678000  0.02853000  1
  O  O55  1  0.99126400  0.09378700  0.76265200  1
  O  O56  1  0.26612100  0.01145200  0.81406200  1
  O  O57  1  0.18055600  0.25448200  0.56437900  1
  O  O58  1  0.47914100  0.57042600  0.22048400  1
  O  O59  1  0.05583100  0.84206400  0.95327300  1
  O  O60  1  0.55583100  0.15793600  0.54672700  1
  O  O61  1  0.97914100  0.42957400  0.27951600  1
  O  O62  1  0.68055600  0.74551800  0.93562100  1
  O  O63  1  0.76612100  0.98854800  0.68593800  1
  O  O64  1  0.49126400  0.90621300  0.73734800  1
  O  O65  1  0.91269300  0.16322000  0.47147000  1
  O  O66  1  0.70806400  0.28835800  0.32811200  1
  O  O67  1  0.86866700  0.51519500  0.07620500  1
  O  O68  1  0.08764000  0.89659500  0.67528900  1
  O  O69  1  0.18372500  0.46771000  0.09961000  1
  O  O70  1  0.37299500  0.60518700  0.94133200  1
  O  O71  1  0.38035500  0.18639400  0.37799100  1
