# generated using pymatgen
data_YCoO3
_symmetry_space_group_name_H-M   'P 1'
_cell_length_a   5.29659903
_cell_length_b   5.67528104
_cell_length_c   7.47779002
_cell_angle_alpha   89.99718590
_cell_angle_beta   90.00616265
_cell_angle_gamma   89.98722289
_symmetry_Int_Tables_number   1
_chemical_formula_structural   YCoO3
_chemical_formula_sum   'Y4 Co4 O12'
_cell_volume   224.78002856
_cell_formula_units_Z   4
loop_
 _symmetry_equiv_pos_site_id
 _symmetry_equiv_pos_as_xyz
  1  'x, y, z'
loop_
 _atom_site_type_symbol
 _atom_site_label
 _atom_site_symmetry_multiplicity
 _atom_site_fract_x
 _atom_site_fract_y
 _atom_site_fract_z
 _atom_site_occupancy
  Y  Y0  1  0.02122300  0.92247900  0.74994900  1
  Y  Y1  1  0.47883500  0.42248700  0.74999700  1
  Y  Y2  1  0.52116500  0.57751300  0.25000300  1
  Y  Y3  1  0.97877700  0.07752100  0.25005100  1
  Co  Co4  1  0.00000000  0.50000000  0.50000000  1
  Co  Co5  1  0.50000000  0.00000000  0.00000000  1
  Co  Co6  1  0.50000000  0.00000000  0.50000000  1
  Co  Co7  1  0.00000000  0.50000000  0.00000000  1
  O  O8  1  0.60987300  0.03162000  0.74993100  1
  O  O9  1  0.10979700  0.46843000  0.24997400  1
  O  O10  1  0.39012700  0.96838000  0.25006900  1
  O  O11  1  0.89020300  0.53157000  0.75002600  1
  O  O12  1  0.80563400  0.80893900  0.05363100  1
  O  O13  1  0.30567700  0.69107200  0.94636900  1
  O  O14  1  0.30572100  0.69107200  0.55363500  1
  O  O15  1  0.80572500  0.80891800  0.44638900  1
  O  O16  1  0.19427500  0.19108200  0.55361100  1
  O  O17  1  0.69427900  0.30892800  0.44636500  1
  O  O18  1  0.69432300  0.30892800  0.05363200  1
  O  O19  1  0.19436500  0.19106100  0.94636900  1
