# generated using pymatgen
data_SrPH3O4
_symmetry_space_group_name_H-M   'P 1'
_cell_length_a   7.15788600
_cell_length_b   7.68841200
_cell_length_c   8.24036883
_cell_angle_alpha   71.52528897
_cell_angle_beta   90.00000000
_cell_angle_gamma   90.00000000
_symmetry_Int_Tables_number   1
_chemical_formula_structural   SrPH3O4
_chemical_formula_sum   'Sr4 P4 H12 O16'
_cell_volume   430.11912188
_cell_formula_units_Z   4
loop_
 _symmetry_equiv_pos_site_id
 _symmetry_equiv_pos_as_xyz
  1  'x, y, z'
loop_
 _atom_site_type_symbol
 _atom_site_label
 _atom_site_symmetry_multiplicity
 _atom_site_fract_x
 _atom_site_fract_y
 _atom_site_fract_z
 _atom_site_occupancy
  Sr  Sr0  1  0.35968500  0.62646600  0.65402500  1
  Sr  Sr1  1  0.85968500  0.37353400  0.84597500  1
  Sr  Sr2  1  0.64031500  0.37353400  0.34597500  1
  Sr  Sr3  1  0.14031500  0.62646600  0.15402500  1
  P  P4  1  0.34882300  0.27214400  0.00501300  1
  P  P5  1  0.84882300  0.72785600  0.49498700  1
  P  P6  1  0.65117700  0.72785600  0.99498700  1
  P  P7  1  0.15117700  0.27214400  0.50501300  1
  H  H8  1  0.26094400  0.11121300  0.99568900  1
  H  H9  1  0.76094400  0.88878700  0.50431100  1
  H  H10  1  0.73905600  0.88878700  0.00431100  1
  H  H11  1  0.23905600  0.11121300  0.49568900  1
  H  H12  1  0.39400300  0.99583800  0.29844400  1
  H  H13  1  0.89400300  0.00416200  0.20155600  1
  H  H14  1  0.60599700  0.00416200  0.70155600  1
  H  H15  1  0.10599700  0.99583800  0.79844400  1
  H  H16  1  0.54700000  0.19189400  0.72766900  1
  H  H17  1  0.04700000  0.80810600  0.77233100  1
  H  H18  1  0.45300000  0.80810600  0.27233100  1
  H  H19  1  0.95300000  0.19189400  0.22766900  1
  O  O20  1  0.20039200  0.42744000  0.95766500  1
  O  O21  1  0.11626700  0.85998600  0.85090900  1
  O  O22  1  0.88373300  0.14001400  0.14909100  1
  O  O23  1  0.38373300  0.85998600  0.35090900  1
  O  O24  1  0.99662400  0.32058500  0.36619400  1
  O  O25  1  0.49662400  0.67941500  0.13380600  1
  O  O26  1  0.00337600  0.67941500  0.63380600  1
  O  O27  1  0.50337600  0.32058500  0.86619400  1
  O  O28  1  0.07782800  0.22774600  0.68826200  1
  O  O29  1  0.57782800  0.77225400  0.81173800  1
  O  O30  1  0.92217200  0.77225400  0.31173800  1
  O  O31  1  0.42217200  0.22774600  0.18826200  1
  O  O32  1  0.79960800  0.57256000  0.04233500  1
  O  O33  1  0.29960800  0.42744000  0.45766500  1
  O  O34  1  0.61626700  0.14001400  0.64909100  1
  O  O35  1  0.70039200  0.57256000  0.54233500  1
