# generated using pymatgen
data_BiTePd
_symmetry_space_group_name_H-M   'P 1'
_cell_length_a   6.75663300
_cell_length_b   6.75663300
_cell_length_c   6.75663300
_cell_angle_alpha   90.00000000
_cell_angle_beta   90.00000000
_cell_angle_gamma   90.00000000
_symmetry_Int_Tables_number   1
_chemical_formula_structural   BiTePd
_chemical_formula_sum   'Bi4 Te4 Pd4'
_cell_volume   308.45441441
_cell_formula_units_Z   4
loop_
 _symmetry_equiv_pos_site_id
 _symmetry_equiv_pos_as_xyz
  1  'x, y, z'
loop_
 _atom_site_type_symbol
 _atom_site_label
 _atom_site_symmetry_multiplicity
 _atom_site_fract_x
 _atom_site_fract_y
 _atom_site_fract_z
 _atom_site_occupancy
  Bi  Bi0  1  0.36833900  0.36833900  0.36833900  1
  Bi  Bi1  1  0.13166100  0.63166100  0.86833900  1
  Bi  Bi2  1  0.86833900  0.13166100  0.63166100  1
  Bi  Bi3  1  0.63166100  0.86833900  0.13166100  1
  Te  Te4  1  0.62702600  0.62702600  0.62702600  1
  Te  Te5  1  0.87297400  0.37297400  0.12702600  1
  Te  Te6  1  0.12702600  0.87297400  0.37297400  1
  Te  Te7  1  0.37297400  0.12702600  0.87297400  1
  Pd  Pd8  1  0.00482800  0.00482800  0.00482800  1
  Pd  Pd9  1  0.49517200  0.99517200  0.50482800  1
  Pd  Pd10  1  0.50482800  0.49517200  0.99517200  1
  Pd  Pd11  1  0.99517200  0.50482800  0.49517200  1
