# generated using pymatgen
data_Mo4P7O24
_symmetry_space_group_name_H-M   'P 1'
_cell_length_a   10.56087369
_cell_length_b   10.58488862
_cell_length_c   11.34206804
_cell_angle_alpha   112.88982372
_cell_angle_beta   109.69481098
_cell_angle_gamma   104.33281399
_symmetry_Int_Tables_number   1
_chemical_formula_structural   Mo4P7O24
_chemical_formula_sum   'Mo8 P14 O48'
_cell_volume   989.39441062
_cell_formula_units_Z   2
loop_
 _symmetry_equiv_pos_site_id
 _symmetry_equiv_pos_as_xyz
  1  'x, y, z'
loop_
 _atom_site_type_symbol
 _atom_site_label
 _atom_site_symmetry_multiplicity
 _atom_site_fract_x
 _atom_site_fract_y
 _atom_site_fract_z
 _atom_site_occupancy
  O  O0  1  0.97912706  0.12292300  0.86052885  1
  O  O1  1  0.99786211  0.31392356  0.11726207  1
  O  O2  1  0.96580612  0.32284637  0.33242211  1
  O  O3  1  0.68373988  0.10243059  0.04065159  1
  O  O4  1  0.83453464  0.18857438  0.47548428  1
  O  O5  1  0.87943193  0.28765052  0.73325102  1
  O  O6  1  0.74376039  0.64512777  0.07679527  1
  O  O7  1  0.84104911  0.97734130  0.20118156  1
  O  O8  1  0.00213832  0.68607682  0.88273822  1
  O  O9  1  0.03419431  0.67715400  0.66757818  1
  O  O10  1  0.31626005  0.89756864  0.95934813  1
  O  O11  1  0.02087337  0.87707738  0.13947143  1
  O  O12  1  0.16546529  0.81142484  0.52451544  1
  O  O13  1  0.12056850  0.71234986  0.26674927  1
  O  O14  1  0.25623953  0.35487145  0.92320444  1
  O  O15  1  0.15895081  0.02265793  0.79881815  1
  O  O16  1  0.30607499  0.98492290  0.45999158  1
  O  O17  1  0.33384721  0.69215457  0.69572550  1
  O  O18  1  0.09260318  0.06257053  0.40185014  1
  O  O19  1  0.06662748  0.14520506  0.21098370  1
  O  O20  1  0.22269680  0.43113628  0.36420442  1
  O  O21  1  0.27462440  0.16765986  0.66305237  1
  O  O22  1  0.37172267  0.77432065  0.46315575  1
  O  O23  1  0.13440350  0.51607080  0.00907268  1
  O  O24  1  0.29183507  0.85037068  0.15686744  1
  O  O25  1  0.56488323  0.72334307  0.89711412  1
  O  O26  1  0.59522750  0.88525067  0.78465162  1
  O  O27  1  0.35446473  0.24832564  0.50341973  1
  O  O28  1  0.51373763  0.60782162  0.63183903  1
  O  O29  1  0.45147744  0.04145977  0.82073114  1
  O  O30  1  0.59932695  0.36303632  0.95902229  1
  O  O31  1  0.35795512  0.53255813  0.19784423  1
  O  O32  1  0.64204430  0.46744224  0.80215574  1
  O  O33  1  0.40067348  0.63696406  0.04097800  1
  O  O34  1  0.54852248  0.95853946  0.17926857  1
  O  O35  1  0.48626179  0.39217876  0.36816005  1
  O  O36  1  0.64553520  0.75167359  0.49657999  1
  O  O37  1  0.40477293  0.11474970  0.21534867  1
  O  O38  1  0.43511720  0.27665731  0.10288617  1
  O  O39  1  0.70816535  0.14962970  0.84313285  1
  O  O40  1  0.86559693  0.48392957  0.99092761  1
  O  O41  1  0.62827776  0.22567973  0.53684454  1
  O  O42  1  0.72537553  0.83233937  0.33694734  1
  O  O43  1  0.77730363  0.56886410  0.63579586  1
  O  O44  1  0.93337245  0.85479416  0.78901601  1
  O  O45  1  0.69392544  0.01507748  0.54000870  1
  O  O46  1  0.66615220  0.30784580  0.30427447  1
  O  O47  1  0.90739725  0.93742985  0.59815015  1
  P  P48  1  0.38540938  0.94592356  0.11819217  1
  P  P49  1  0.29901511  0.51218137  0.04721645  1
  P  P50  1  0.70098430  0.48781900  0.95278352  1
  P  P51  1  0.61459105  0.05407682  0.88180812  1
  P  P52  1  0.26769399  0.12620575  0.51856739  1
  P  P53  1  0.73230644  0.87379463  0.48143290  1
  P  P54  1  0.50338580  0.27902604  0.24342941  1
  P  P55  1  0.93613535  0.68501304  0.73876337  1
  P  P56  1  0.99724845  0.99051236  0.76667459  1
  P  P57  1  0.24036897  0.81282208  0.43221287  1
  P  P58  1  0.06386508  0.31498734  0.26123692  1
  P  P59  1  0.00275198  0.00948801  0.23332570  1
  P  P60  1  0.49661463  0.72097434  0.75657088  1
  P  P61  1  0.75963045  0.18717830  0.56778710  1
  Mo  Mo62  1  0.75792201  0.15430261  0.26060829  1
  Mo  Mo63  1  0.92261841  0.30623511  0.92557491  1
  Mo  Mo64  1  0.62542915  0.77582398  0.11414492  1
  Mo  Mo65  1  0.57295962  0.41395939  0.58734642  1
  Mo  Mo66  1  0.42704081  0.58604099  0.41265387  1
  Mo  Mo67  1  0.37457128  0.22417639  0.88585537  1
  Mo  Mo68  1  0.07738202  0.69376527  0.07442537  1
  Mo  Mo69  1  0.24207842  0.84569777  0.73939200  1
