# generated using pymatgen
data_Na2W2O7
_symmetry_space_group_name_H-M   'P 1'
_cell_length_a   3.87853741
_cell_length_b   5.52393671
_cell_length_c   13.80581632
_cell_angle_alpha   90.00000000
_cell_angle_beta   98.07490016
_cell_angle_gamma   90.00000000
_symmetry_Int_Tables_number   1
_chemical_formula_structural   Na2W2O7
_chemical_formula_sum   'Na4 W4 O14'
_cell_volume   292.85414609
_cell_formula_units_Z   2
loop_
 _symmetry_equiv_pos_site_id
 _symmetry_equiv_pos_as_xyz
  1  'x, y, z'
loop_
 _atom_site_type_symbol
 _atom_site_label
 _atom_site_symmetry_multiplicity
 _atom_site_fract_x
 _atom_site_fract_y
 _atom_site_fract_z
 _atom_site_occupancy
  O  O0  1  0.30774733  0.81920091  0.61549698  1
  O  O1  1  0.69225236  0.31920176  0.38450346  1
  O  O2  1  0.95320703  0.60866829  0.90641539  1
  O  O3  1  0.04679265  0.10866733  0.09358506  1
  O  O4  1  0.29140202  0.30443958  0.58280698  1
  O  O5  1  0.70859766  0.80444054  0.41719347  1
  O  O6  1  0.85411636  0.11021508  0.70823341  1
  O  O7  1  0.14588332  0.61021423  0.29176704  1
  O  O8  1  0.60525599  0.89543003  0.21050995  1
  O  O9  1  0.39474632  0.39543087  0.78949060  1
  O  O10  1  0.49205204  0.32048907  0.98410218  1
  O  O11  1  0.41018643  0.89517791  0.82037524  1
  O  O12  1  0.58981326  0.39517695  0.17962521  1
  O  O13  1  0.50794764  0.82049003  0.01589754  1
  Na  Na14  1  0.78352868  0.57101970  0.56705874  1
  Na  Na15  1  0.21647100  0.07101874  0.43294097  1
  Na  Na16  1  0.05372462  0.61513458  0.10745095  1
  Na  Na17  1  0.94627506  0.11513362  0.89254950  1
  W  W18  1  0.34210533  0.09485411  0.68420975  1
  W  W19  1  0.65789435  0.59485507  0.31578996  1
  W  W20  1  0.44721480  0.60684952  0.89442728  1
  W  W21  1  0.55278751  0.10685036  0.10557254  1
