# generated using pymatgen
data_UCoGe
_symmetry_space_group_name_H-M   'P 1'
_cell_length_a   4.28722000
_cell_length_b   6.69300700
_cell_length_c   7.09945100
_cell_angle_alpha   90.00000000
_cell_angle_beta   90.00000000
_cell_angle_gamma   90.00000000
_symmetry_Int_Tables_number   1
_chemical_formula_structural   UCoGe
_chemical_formula_sum   'U4 Co4 Ge4'
_cell_volume   203.71444042
_cell_formula_units_Z   4
loop_
 _symmetry_equiv_pos_site_id
 _symmetry_equiv_pos_as_xyz
  1  'x, y, z'
loop_
 _atom_site_type_symbol
 _atom_site_label
 _atom_site_symmetry_multiplicity
 _atom_site_fract_x
 _atom_site_fract_y
 _atom_site_fract_z
 _atom_site_occupancy
  U  U0  1  0.25000000  0.01721400  0.79647800  1
  U  U1  1  0.25000000  0.51721400  0.70352200  1
  U  U2  1  0.75000000  0.98278600  0.20352200  1
  U  U3  1  0.75000000  0.48278600  0.29647800  1
  Co  Co4  1  0.25000000  0.28372900  0.07201300  1
  Co  Co5  1  0.25000000  0.78372900  0.42798700  1
  Co  Co6  1  0.75000000  0.71627100  0.92798700  1
  Co  Co7  1  0.75000000  0.21627100  0.57201300  1
  Ge  Ge8  1  0.25000000  0.69011700  0.09201400  1
  Ge  Ge9  1  0.25000000  0.19011700  0.40798600  1
  Ge  Ge10  1  0.75000000  0.30988300  0.90798600  1
  Ge  Ge11  1  0.75000000  0.80988300  0.59201400  1
