# generated using pymatgen
data_K2Cr2Cd(H2O5)2
_symmetry_space_group_name_H-M   'P 1'
_cell_length_a   6.04453651
_cell_length_b   6.50927462
_cell_length_c   7.74458516
_cell_angle_alpha   109.82949825
_cell_angle_beta   96.47424861
_cell_angle_gamma   109.87010874
_symmetry_Int_Tables_number   1
_chemical_formula_structural   K2Cr2Cd(H2O5)2
_chemical_formula_sum   'K2 Cr2 Cd1 H4 O10'
_cell_volume   260.47130575
_cell_formula_units_Z   1
loop_
 _symmetry_equiv_pos_site_id
 _symmetry_equiv_pos_as_xyz
  1  'x, y, z'
loop_
 _atom_site_type_symbol
 _atom_site_label
 _atom_site_symmetry_multiplicity
 _atom_site_fract_x
 _atom_site_fract_y
 _atom_site_fract_z
 _atom_site_occupancy
  H  H0  1  0.12166784  0.12697744  0.40051878  1
  H  H1  1  0.87833216  0.87302256  0.59948122  1
  H  H2  1  0.93547426  0.85018344  0.31374180  1
  H  H3  1  0.06452574  0.14981656  0.68625820  1
  O  O4  1  0.06435069  0.97229101  0.28754030  1
  O  O5  1  0.64355029  0.19157340  0.36797316  1
  O  O6  1  0.35644971  0.80842660  0.63202684  1
  O  O7  1  0.76588619  0.64020019  0.37946813  1
  O  O8  1  0.23411381  0.35979981  0.62053187  1
  O  O9  1  0.41014862  0.26335901  0.08589944  1
  O  O10  1  0.58985138  0.73664099  0.91410056  1
  O  O11  1  0.88525144  0.31719180  0.11867880  1
  O  O12  1  0.11474856  0.68280820  0.88132120  1
  O  O13  1  0.93564931  0.02770899  0.71245970  1
  K  K14  1  0.35166701  0.70527630  0.24417061  1
  K  K15  1  0.64833299  0.29472370  0.75582939  1
  Cr  Cr16  1  0.67631058  0.34924382  0.24020345  1
  Cr  Cr17  1  0.32368942  0.65075618  0.75979655  1
  Cd  Cd18  1  0.00000000  0.00000000  0.00000000  1
