# generated using pymatgen
data_NaAlH24(SO10)2
_symmetry_space_group_name_H-M   'P 1'
_cell_length_a   12.27966000
_cell_length_b   12.27966000
_cell_length_c   12.27966000
_cell_angle_alpha   90.00000000
_cell_angle_beta   90.00000000
_cell_angle_gamma   90.00000000
_symmetry_Int_Tables_number   1
_chemical_formula_structural   NaAlH24(SO10)2
_chemical_formula_sum   'Na4 Al4 H96 S8 O80'
_cell_volume   1851.65054189
_cell_formula_units_Z   4
loop_
 _symmetry_equiv_pos_site_id
 _symmetry_equiv_pos_as_xyz
  1  'x, y, z'
loop_
 _atom_site_type_symbol
 _atom_site_label
 _atom_site_symmetry_multiplicity
 _atom_site_fract_x
 _atom_site_fract_y
 _atom_site_fract_z
 _atom_site_occupancy
  Na  Na0  1  0.50000000  0.50000000  0.50000000  1
  Na  Na1  1  0.00000000  0.50000000  0.00000000  1
  Na  Na2  1  0.00000000  0.00000000  0.50000000  1
  Na  Na3  1  0.50000000  0.00000000  0.00000000  1
  Al  Al4  1  0.00000000  0.00000000  0.00000000  1
  Al  Al5  1  0.50000000  0.00000000  0.50000000  1
  Al  Al6  1  0.50000000  0.50000000  0.00000000  1
  Al  Al7  1  0.00000000  0.50000000  0.50000000  1
  H  H8  1  0.09042900  0.34304100  0.38822100  1
  H  H9  1  0.59042900  0.15695900  0.61177900  1
  H  H10  1  0.90957100  0.84304100  0.11177900  1
  H  H11  1  0.15695900  0.61177900  0.59042900  1
  H  H12  1  0.11177900  0.90957100  0.84304100  1
  H  H13  1  0.61177900  0.59042900  0.15695900  1
  H  H14  1  0.34304100  0.38822100  0.09042900  1
  H  H15  1  0.38822100  0.09042900  0.34304100  1
  H  H16  1  0.84304100  0.11177900  0.90957100  1
  H  H17  1  0.65695900  0.88822100  0.40957100  1
  H  H18  1  0.88822100  0.40957100  0.65695900  1
  H  H19  1  0.40957100  0.65695900  0.88822100  1
  H  H20  1  0.90957100  0.65695900  0.61177900  1
  H  H21  1  0.40957100  0.84304100  0.38822100  1
  H  H22  1  0.09042900  0.15695900  0.88822100  1
  H  H23  1  0.84304100  0.38822100  0.40957100  1
  H  H24  1  0.88822100  0.09042900  0.15695900  1
  H  H25  1  0.38822100  0.40957100  0.84304100  1
  H  H26  1  0.65695900  0.61177900  0.90957100  1
  H  H27  1  0.61177900  0.90957100  0.65695900  1
  H  H28  1  0.15695900  0.88822100  0.09042900  1
  H  H29  1  0.34304100  0.11177900  0.59042900  1
  H  H30  1  0.11177900  0.59042900  0.34304100  1
  H  H31  1  0.59042900  0.34304100  0.11177900  1
  H  H32  1  0.05136400  0.20711800  0.00699400  1
  H  H33  1  0.55136400  0.29288200  0.99300600  1
  H  H34  1  0.94863600  0.70711800  0.49300600  1
  H  H35  1  0.29288200  0.99300600  0.55136400  1
  H  H36  1  0.49300600  0.94863600  0.70711800  1
  H  H37  1  0.99300600  0.55136400  0.29288200  1
  H  H38  1  0.20711800  0.00699400  0.05136400  1
  H  H39  1  0.00699400  0.05136400  0.20711800  1
  H  H40  1  0.70711800  0.49300600  0.94863600  1
  H  H41  1  0.79288200  0.50699400  0.44863600  1
  H  H42  1  0.50699400  0.44863600  0.79288200  1
  H  H43  1  0.44863600  0.79288200  0.50699400  1
  H  H44  1  0.94863600  0.79288200  0.99300600  1
  H  H45  1  0.44863600  0.70711800  0.00699400  1
  H  H46  1  0.05136400  0.29288200  0.50699400  1
  H  H47  1  0.70711800  0.00699400  0.44863600  1
  H  H48  1  0.50699400  0.05136400  0.29288200  1
  H  H49  1  0.00699400  0.44863600  0.70711800  1
  H  H50  1  0.79288200  0.99300600  0.94863600  1
  H  H51  1  0.99300600  0.94863600  0.79288200  1
  H  H52  1  0.29288200  0.50699400  0.05136400  1
  H  H53  1  0.20711800  0.49300600  0.55136400  1
  H  H54  1  0.49300600  0.55136400  0.20711800  1
  H  H55  1  0.58835500  0.31388500  0.35749700  1
  H  H56  1  0.96512400  0.30825700  0.11293200  1
  H  H57  1  0.46512400  0.19174300  0.88706800  1
  H  H58  1  0.03487600  0.80825700  0.38706800  1
  H  H59  1  0.19174300  0.88706800  0.46512400  1
  H  H60  1  0.38706800  0.03487600  0.80825700  1
  H  H61  1  0.88706800  0.46512400  0.19174300  1
  H  H62  1  0.30825700  0.11293200  0.96512400  1
  H  H63  1  0.11293200  0.96512400  0.30825700  1
  H  H64  1  0.80825700  0.38706800  0.03487600  1
  H  H65  1  0.69174300  0.61293200  0.53487600  1
  H  H66  1  0.61293200  0.53487600  0.69174300  1
  H  H67  1  0.53487600  0.69174300  0.61293200  1
  H  H68  1  0.03487600  0.69174300  0.88706800  1
  H  H69  1  0.53487600  0.80825700  0.11293200  1
  H  H70  1  0.96512400  0.19174300  0.61293200  1
  H  H71  1  0.80825700  0.11293200  0.53487600  1
  H  H72  1  0.61293200  0.96512400  0.19174300  1
  H  H73  1  0.11293200  0.53487600  0.80825700  1
  H  H74  1  0.69174300  0.88706800  0.03487600  1
  H  H75  1  0.88706800  0.03487600  0.69174300  1
  H  H76  1  0.19174300  0.61293200  0.96512400  1
  H  H77  1  0.30825700  0.38706800  0.46512400  1
  H  H78  1  0.38706800  0.46512400  0.30825700  1
  H  H79  1  0.46512400  0.30825700  0.38706800  1
  H  H80  1  0.08835500  0.31388500  0.14250300  1
  H  H81  1  0.58835500  0.18611500  0.85749700  1
  H  H82  1  0.91164500  0.81388500  0.35749700  1
  H  H83  1  0.18611500  0.85749700  0.58835500  1
  H  H84  1  0.35749700  0.91164500  0.81388500  1
  H  H85  1  0.85749700  0.58835500  0.18611500  1
  H  H86  1  0.31388500  0.14250300  0.08835500  1
  H  H87  1  0.14250300  0.08835500  0.31388500  1
  H  H88  1  0.81388500  0.35749700  0.91164500  1
  H  H89  1  0.68611500  0.64250300  0.41164500  1
  H  H90  1  0.64250300  0.41164500  0.68611500  1
  H  H91  1  0.41164500  0.68611500  0.64250300  1
  H  H92  1  0.91164500  0.68611500  0.85749700  1
  H  H93  1  0.41164500  0.81388500  0.14250300  1
  H  H94  1  0.08835500  0.18611500  0.64250300  1
  H  H95  1  0.81388500  0.14250300  0.41164500  1
  H  H96  1  0.64250300  0.08835500  0.18611500  1
  H  H97  1  0.14250300  0.41164500  0.81388500  1
  H  H98  1  0.68611500  0.85749700  0.91164500  1
  H  H99  1  0.85749700  0.91164500  0.68611500  1
  H  H100  1  0.18611500  0.64250300  0.08835500  1
  H  H101  1  0.31388500  0.35749700  0.58835500  1
  H  H102  1  0.35749700  0.58835500  0.31388500  1
  H  H103  1  0.55136400  0.20711800  0.49300600  1
  S  S104  1  0.26578900  0.26578900  0.26578900  1
  S  S105  1  0.23421100  0.73421100  0.76578900  1
  S  S106  1  0.76578900  0.23421100  0.73421100  1
  S  S107  1  0.73421100  0.76578900  0.23421100  1
  S  S108  1  0.73421100  0.73421100  0.73421100  1
  S  S109  1  0.76578900  0.26578900  0.23421100  1
  S  S110  1  0.23421100  0.76578900  0.26578900  1
  S  S111  1  0.26578900  0.23421100  0.76578900  1
  O  O112  1  0.63889500  0.96012900  0.44307600  1
  O  O113  1  0.13889500  0.53987100  0.55692400  1
  O  O114  1  0.36110500  0.46012900  0.05692400  1
  O  O115  1  0.53987100  0.55692400  0.13889500  1
  O  O116  1  0.05692400  0.36110500  0.46012900  1
  O  O117  1  0.55692400  0.13889500  0.53987100  1
  O  O118  1  0.96012900  0.44307600  0.63889500  1
  O  O119  1  0.44307600  0.63889500  0.96012900  1
  O  O120  1  0.46012900  0.05692400  0.36110500  1
  O  O121  1  0.03987100  0.94307600  0.86110500  1
  O  O122  1  0.94307600  0.86110500  0.03987100  1
  O  O123  1  0.86110500  0.03987100  0.94307600  1
  O  O124  1  0.36110500  0.03987100  0.55692400  1
  O  O125  1  0.86110500  0.46012900  0.44307600  1
  O  O126  1  0.63889500  0.53987100  0.94307600  1
  O  O127  1  0.46012900  0.44307600  0.86110500  1
  O  O128  1  0.94307600  0.63889500  0.53987100  1
  O  O129  1  0.44307600  0.86110500  0.46012900  1
  O  O130  1  0.03987100  0.55692400  0.36110500  1
  O  O131  1  0.55692400  0.36110500  0.03987100  1
  O  O132  1  0.53987100  0.94307600  0.63889500  1
  O  O133  1  0.96012900  0.05692400  0.13889500  1
  O  O134  1  0.05692400  0.13889500  0.96012900  1
  O  O135  1  0.13889500  0.96012900  0.05692400  1
  O  O136  1  0.57877100  0.03812900  0.18474400  1
  O  O137  1  0.07877100  0.46187100  0.81525600  1
  O  O138  1  0.42122900  0.53812900  0.31525600  1
  O  O139  1  0.46187100  0.81525600  0.07877100  1
  O  O140  1  0.31525600  0.42122900  0.53812900  1
  O  O141  1  0.81525600  0.07877100  0.46187100  1
  O  O142  1  0.03812900  0.18474400  0.57877100  1
  O  O143  1  0.18474400  0.57877100  0.03812900  1
  O  O144  1  0.53812900  0.31525600  0.42122900  1
  O  O145  1  0.96187100  0.68474400  0.92122900  1
  O  O146  1  0.68474400  0.92122900  0.96187100  1
  O  O147  1  0.92122900  0.96187100  0.68474400  1
  O  O148  1  0.42122900  0.96187100  0.81525600  1
  O  O149  1  0.92122900  0.53812900  0.18474400  1
  O  O150  1  0.57877100  0.46187100  0.68474400  1
  O  O151  1  0.53812900  0.18474400  0.92122900  1
  O  O152  1  0.68474400  0.57877100  0.46187100  1
  O  O153  1  0.18474400  0.92122900  0.53812900  1
  O  O154  1  0.96187100  0.81525600  0.42122900  1
  O  O155  1  0.81525600  0.42122900  0.96187100  1
  O  O156  1  0.46187100  0.68474400  0.57877100  1
  O  O157  1  0.03812900  0.31525600  0.07877100  1
  O  O158  1  0.31525600  0.07877100  0.03812900  1
  O  O159  1  0.07877100  0.03812900  0.31525600  1
  O  O160  1  0.80777200  0.26927800  0.34800400  1
  O  O161  1  0.30777200  0.23072200  0.65199600  1
  O  O162  1  0.19222800  0.76927800  0.15199600  1
  O  O163  1  0.23072200  0.65199600  0.30777200  1
  O  O164  1  0.15199600  0.19222800  0.76927800  1
  O  O165  1  0.65199600  0.30777200  0.23072200  1
  O  O166  1  0.26927800  0.34800400  0.80777200  1
  O  O167  1  0.34800400  0.80777200  0.26927800  1
  O  O168  1  0.76927800  0.15199600  0.19222800  1
  O  O169  1  0.73072200  0.84800400  0.69222800  1
  O  O170  1  0.84800400  0.69222800  0.73072200  1
  O  O171  1  0.69222800  0.73072200  0.84800400  1
  O  O172  1  0.19222800  0.73072200  0.65199600  1
  O  O173  1  0.69222800  0.76927800  0.34800400  1
  O  O174  1  0.80777200  0.23072200  0.84800400  1
  O  O175  1  0.76927800  0.34800400  0.69222800  1
  O  O176  1  0.84800400  0.80777200  0.23072200  1
  O  O177  1  0.34800400  0.69222800  0.76927800  1
  O  O178  1  0.73072200  0.65199600  0.19222800  1
  O  O179  1  0.65199600  0.19222800  0.73072200  1
  O  O180  1  0.23072200  0.84800400  0.80777200  1
  O  O181  1  0.26927800  0.15199600  0.30777200  1
  O  O182  1  0.15199600  0.30777200  0.26927800  1
  O  O183  1  0.30777200  0.26927800  0.15199600  1
  O  O184  1  0.33651400  0.33651400  0.33651400  1
  O  O185  1  0.16348600  0.83651400  0.33651400  1
  O  O186  1  0.83651400  0.33651400  0.16348600  1
  O  O187  1  0.66348600  0.66348600  0.66348600  1
  O  O188  1  0.66348600  0.83651400  0.16348600  1
  O  O189  1  0.83651400  0.16348600  0.66348600  1
  O  O190  1  0.16348600  0.66348600  0.83651400  1
  O  O191  1  0.33651400  0.16348600  0.83651400  1
