# generated using pymatgen
data_Sm3(Ge2Ru)2
_symmetry_space_group_name_H-M   'P 1'
_cell_length_a   5.90995838
_cell_length_b   5.90995838
_cell_length_c   8.31069273
_cell_angle_alpha   72.29271242
_cell_angle_beta   72.29271242
_cell_angle_gamma   43.40198362
_symmetry_Int_Tables_number   1
_chemical_formula_structural   Sm3(Ge2Ru)2
_chemical_formula_sum   'Sm3 Ge4 Ru2'
_cell_volume   188.46057231
_cell_formula_units_Z   1
loop_
 _symmetry_equiv_pos_site_id
 _symmetry_equiv_pos_as_xyz
  1  'x, y, z'
loop_
 _atom_site_type_symbol
 _atom_site_label
 _atom_site_symmetry_multiplicity
 _atom_site_fract_x
 _atom_site_fract_y
 _atom_site_fract_z
 _atom_site_occupancy
  Sm  Sm0  1  0.00000000  0.00000000  0.00000000  1
  Sm  Sm1  1  0.38055900  0.38055900  0.69735700  1
  Sm  Sm2  1  0.61944100  0.61944100  0.30264300  1
  Ge  Ge3  1  0.71384600  0.71384600  0.91932400  1
  Ge  Ge4  1  0.28615400  0.28615400  0.08067600  1
  Ge  Ge5  1  0.09885400  0.09885400  0.59713200  1
  Ge  Ge6  1  0.90114600  0.90114600  0.40286800  1
  Ru  Ru7  1  0.68519000  0.68519000  0.63858200  1
  Ru  Ru8  1  0.31481000  0.31481000  0.36141800  1
