# generated using pymatgen
data_MnSn(BO3)2
_symmetry_space_group_name_H-M   'P 1'
_cell_length_a   5.89133823
_cell_length_b   5.89133856
_cell_length_c   5.89133860
_cell_angle_alpha   48.43624246
_cell_angle_beta   48.43623779
_cell_angle_gamma   48.43624260
_symmetry_Int_Tables_number   1
_chemical_formula_structural   MnSn(BO3)2
_chemical_formula_sum   'Mn1 Sn1 B2 O6'
_cell_volume   104.97284742
_cell_formula_units_Z   1
loop_
 _symmetry_equiv_pos_site_id
 _symmetry_equiv_pos_as_xyz
  1  'x, y, z'
loop_
 _atom_site_type_symbol
 _atom_site_label
 _atom_site_symmetry_multiplicity
 _atom_site_fract_x
 _atom_site_fract_y
 _atom_site_fract_z
 _atom_site_occupancy
  Mn  Mn0  1  0.00000000  0.00000000  0.00000000  1
  Sn  Sn1  1  0.50000000  0.50000000  0.49999900  1
  B  B2  1  0.75542860  0.75542860  0.75542860  1
  B  B3  1  0.24457240  0.24457140  0.24457140  1
  O  O4  1  0.04676629  0.74209542  0.47348599  1
  O  O5  1  0.74209442  0.47348599  0.04676729  1
  O  O6  1  0.52651301  0.95323271  0.25790558  1
  O  O7  1  0.47348499  0.04676729  0.74209442  1
  O  O8  1  0.95323471  0.25790458  0.52651201  1
  O  O9  1  0.25790458  0.52651401  0.95323371  1
