# generated using pymatgen
data_Li(MoO2)2
_symmetry_space_group_name_H-M   'P 1'
_cell_length_a   6.26752755
_cell_length_b   6.42320225
_cell_length_c   6.38570982
_cell_angle_alpha   58.58915631
_cell_angle_beta   60.16929025
_cell_angle_gamma   60.40580092
_symmetry_Int_Tables_number   1
_chemical_formula_structural   Li(MoO2)2
_chemical_formula_sum   'Li2 Mo4 O8'
_cell_volume   180.52104510
_cell_formula_units_Z   2
loop_
 _symmetry_equiv_pos_site_id
 _symmetry_equiv_pos_as_xyz
  1  'x, y, z'
loop_
 _atom_site_type_symbol
 _atom_site_label
 _atom_site_symmetry_multiplicity
 _atom_site_fract_x
 _atom_site_fract_y
 _atom_site_fract_z
 _atom_site_occupancy
  Li  Li0  1  0.11907821  0.13091996  0.11907655  1
  Li  Li1  1  0.88091991  0.86908319  0.88092130  1
  O  O2  1  0.25178788  0.25926758  0.71203738  1
  O  O3  1  0.74421912  0.72276826  0.74664276  1
  O  O4  1  0.74821295  0.74073296  0.28796282  1
  O  O5  1  0.25335709  0.71363070  0.25578171  1
  O  O6  1  0.25578206  0.27723201  0.25335801  1
  O  O7  1  0.28796323  0.72309246  0.74821279  1
  O  O8  1  0.74664374  0.28636896  0.74421944  1
  O  O9  1  0.71203720  0.27690787  0.25178789  1
  Mo  Mo10  1  0.49999989  0.49999976  0.49999986  1
  Mo  Mo11  1  0.49999975  1.00000148  0.49999987  1
  Mo  Mo12  1  0.00000235  0.49999945  0.49999936  1
  Mo  Mo13  1  0.49999926  0.49999969  0.00000226  1
