# generated using pymatgen
data_Li3Cr2(PO4)3
_symmetry_space_group_name_H-M   'P 1'
_cell_length_a   8.72535000
_cell_length_b   8.45529200
_cell_length_c   14.62855783
_cell_angle_alpha   55.11958234
_cell_angle_beta   90.00000000
_cell_angle_gamma   90.00000000
_symmetry_Int_Tables_number   1
_chemical_formula_structural   Li3Cr2(PO4)3
_chemical_formula_sum   'Li12 Cr8 P12 O48'
_cell_volume   885.34139854
_cell_formula_units_Z   4
loop_
 _symmetry_equiv_pos_site_id
 _symmetry_equiv_pos_as_xyz
  1  'x, y, z'
loop_
 _atom_site_type_symbol
 _atom_site_label
 _atom_site_symmetry_multiplicity
 _atom_site_fract_x
 _atom_site_fract_y
 _atom_site_fract_z
 _atom_site_occupancy
  Li  Li0  1  0.98834900  0.77559700  0.65488800  1
  Li  Li1  1  0.41210400  0.10836200  0.30959700  1
  Li  Li2  1  0.71769500  0.49933300  0.82418900  1
  Li  Li3  1  0.21769500  0.50066700  0.67581100  1
  Li  Li4  1  0.91210400  0.89163800  0.19040300  1
  Li  Li5  1  0.48834900  0.22440300  0.84511200  1
  Li  Li6  1  0.51165100  0.77559700  0.15488800  1
  Li  Li7  1  0.08789600  0.10836200  0.80959700  1
  Li  Li8  1  0.78230500  0.49933300  0.32418900  1
  Li  Li9  1  0.28230500  0.50066700  0.17581100  1
  Li  Li10  1  0.58789600  0.89163800  0.69040300  1
  Li  Li11  1  0.01165100  0.22440300  0.34511200  1
  Cr  Cr12  1  0.47261800  0.14592200  0.10686100  1
  Cr  Cr13  1  0.03482800  0.36463700  0.88916600  1
  Cr  Cr14  1  0.97261800  0.85407800  0.39313900  1
  Cr  Cr15  1  0.53482800  0.63536300  0.61083400  1
  Cr  Cr16  1  0.46517200  0.36463700  0.38916600  1
  Cr  Cr17  1  0.02738200  0.14592200  0.60686100  1
  Cr  Cr18  1  0.96517200  0.63536300  0.11083400  1
  Cr  Cr19  1  0.52738200  0.85407800  0.89313900  1
  P  P20  1  0.25079200  0.95196400  0.50939700  1
  P  P21  1  0.11727900  0.23872300  0.14955200  1
  P  P22  1  0.38750800  0.53495700  0.85357400  1
  P  P23  1  0.61727900  0.76127700  0.35044800  1
  P  P24  1  0.88750800  0.46504300  0.64642600  1
  P  P25  1  0.75079200  0.04803600  0.99060300  1
  P  P26  1  0.24920800  0.95196400  0.00939700  1
  P  P27  1  0.11249200  0.53495700  0.35357400  1
  P  P28  1  0.38272100  0.23872300  0.64955200  1
  P  P29  1  0.61249200  0.46504300  0.14642600  1
  P  P30  1  0.88272100  0.76127700  0.85044800  1
  P  P31  1  0.74920800  0.04803600  0.49060300  1
  O  O32  1  0.62699600  0.89031100  0.55608900  1
  O  O33  1  0.83263900  0.04432900  0.39828200  1
  O  O34  1  0.61452400  0.33708900  0.10401700  1
  O  O35  1  0.92364000  0.62331000  0.81345000  1
  O  O36  1  0.13785000  0.98828900  0.41691400  1
  O  O37  1  0.29469300  0.21387800  0.16847600  1
  O  O38  1  0.50540000  0.61897300  0.75452100  1
  O  O39  1  0.08119600  0.33443000  0.02765500  1
  O  O40  1  0.22958500  0.51462700  0.81237500  1
  O  O41  1  0.32251700  0.74942300  0.56427700  1
  O  O42  1  0.02561200  0.04881200  0.22478300  1
  O  O43  1  0.45027300  0.32696200  0.94079200  1
  O  O44  1  0.95027300  0.67303800  0.55920800  1
  O  O45  1  0.52561200  0.95118800  0.27521700  1
  O  O46  1  0.82251700  0.25057700  0.93572300  1
  O  O47  1  0.72958500  0.48537300  0.68762500  1
  O  O48  1  0.58119600  0.66557000  0.47234500  1
  O  O49  1  0.00540000  0.38102700  0.74547900  1
  O  O50  1  0.79469300  0.78612200  0.33152400  1
  O  O51  1  0.63785000  0.01171100  0.08308600  1
  O  O52  1  0.42364000  0.37669000  0.68655000  1
  O  O53  1  0.11452400  0.66291100  0.39598300  1
  O  O54  1  0.33263900  0.95567100  0.10171800  1
  O  O55  1  0.12699600  0.10968900  0.94391100  1
  O  O56  1  0.87300400  0.89031100  0.05608900  1
  O  O57  1  0.66736100  0.04432900  0.89828200  1
  O  O58  1  0.88547600  0.33708900  0.60401700  1
  O  O59  1  0.57636000  0.62331000  0.31345000  1
  O  O60  1  0.36215000  0.98828900  0.91691400  1
  O  O61  1  0.20530700  0.21387800  0.66847600  1
  O  O62  1  0.99460000  0.61897300  0.25452100  1
  O  O63  1  0.41880400  0.33443000  0.52765500  1
  O  O64  1  0.27041500  0.51462700  0.31237500  1
  O  O65  1  0.17748300  0.74942300  0.06427700  1
  O  O66  1  0.47438800  0.04881200  0.72478300  1
  O  O67  1  0.04972700  0.32696200  0.44079200  1
  O  O68  1  0.54972700  0.67303800  0.05920800  1
  O  O69  1  0.97438800  0.95118800  0.77521700  1
  O  O70  1  0.67748300  0.25057700  0.43572300  1
  O  O71  1  0.77041500  0.48537300  0.18762500  1
  O  O72  1  0.91880400  0.66557000  0.97234500  1
  O  O73  1  0.49460000  0.38102700  0.24547900  1
  O  O74  1  0.70530700  0.78612200  0.83152400  1
  O  O75  1  0.86215000  0.01171100  0.58308600  1
  O  O76  1  0.07636000  0.37669000  0.18655000  1
  O  O77  1  0.38547600  0.66291100  0.89598300  1
  O  O78  1  0.16736100  0.95567100  0.60171800  1
  O  O79  1  0.37300400  0.10968900  0.44391100  1
