# generated using pymatgen
data_Ba(TeP2)2
_symmetry_space_group_name_H-M   'P 1'
_cell_length_a   6.53021700
_cell_length_b   7.24692900
_cell_length_c   16.68043300
_cell_angle_alpha   90.00000000
_cell_angle_beta   90.00000000
_cell_angle_gamma   90.00000000
_symmetry_Int_Tables_number   1
_chemical_formula_structural   Ba(TeP2)2
_chemical_formula_sum   'Ba4 Te8 P16'
_cell_volume   789.38512745
_cell_formula_units_Z   4
loop_
 _symmetry_equiv_pos_site_id
 _symmetry_equiv_pos_as_xyz
  1  'x, y, z'
loop_
 _atom_site_type_symbol
 _atom_site_label
 _atom_site_symmetry_multiplicity
 _atom_site_fract_x
 _atom_site_fract_y
 _atom_site_fract_z
 _atom_site_occupancy
  Ba  Ba0  1  0.25000000  0.39857100  0.66203100  1
  Ba  Ba1  1  0.75000000  0.60142900  0.33796900  1
  Ba  Ba2  1  0.75000000  0.89857100  0.83796900  1
  Ba  Ba3  1  0.25000000  0.10142900  0.16203100  1
  Te  Te4  1  0.75000000  0.56249100  0.56348000  1
  Te  Te5  1  0.25000000  0.43750900  0.43652000  1
  Te  Te6  1  0.25000000  0.06249100  0.93652000  1
  Te  Te7  1  0.75000000  0.93750900  0.06348000  1
  Te  Te8  1  0.25000000  0.90706300  0.74655800  1
  Te  Te9  1  0.75000000  0.09293700  0.25344200  1
  Te  Te10  1  0.75000000  0.40706300  0.75344200  1
  Te  Te11  1  0.25000000  0.59293700  0.24655800  1
  P  P12  1  0.25000000  0.83194200  0.59587300  1
  P  P13  1  0.75000000  0.16805800  0.40412700  1
  P  P14  1  0.75000000  0.33194200  0.90412700  1
  P  P15  1  0.25000000  0.66805800  0.09587300  1
  P  P16  1  0.50790600  0.96466500  0.43478000  1
  P  P17  1  0.00790600  0.03533500  0.56522000  1
  P  P18  1  0.49209400  0.46466500  0.06522000  1
  P  P19  1  0.99209400  0.53533500  0.93478000  1
  P  P20  1  0.49209400  0.03533500  0.56522000  1
  P  P21  1  0.99209400  0.96466500  0.43478000  1
  P  P22  1  0.50790600  0.53533500  0.93478000  1
  P  P23  1  0.00790600  0.46466500  0.06522000  1
  P  P24  1  0.25000000  0.12049300  0.37871600  1
  P  P25  1  0.75000000  0.87950700  0.62128400  1
  P  P26  1  0.75000000  0.62049300  0.12128400  1
  P  P27  1  0.25000000  0.37950700  0.87871600  1
