# generated using pymatgen
data_EuTaO4
_symmetry_space_group_name_H-M   'P 1'
_cell_length_a   6.67424311
_cell_length_b   6.67424311
_cell_length_c   5.14867625
_cell_angle_alpha   69.93372701
_cell_angle_beta   69.93372701
_cell_angle_gamma   115.09818135
_symmetry_Int_Tables_number   1
_chemical_formula_structural   EuTaO4
_chemical_formula_sum   'Eu2 Ta2 O8'
_cell_volume   159.68556987
_cell_formula_units_Z   2
loop_
 _symmetry_equiv_pos_site_id
 _symmetry_equiv_pos_as_xyz
  1  'x, y, z'
loop_
 _atom_site_type_symbol
 _atom_site_label
 _atom_site_symmetry_multiplicity
 _atom_site_fract_x
 _atom_site_fract_y
 _atom_site_fract_z
 _atom_site_occupancy
  Eu  Eu0  1  0.63335400  0.36664600  0.75000000  1
  Eu  Eu1  1  0.36664600  0.63335400  0.25000000  1
  Ta  Ta2  1  0.09745600  0.90254400  0.75000000  1
  Ta  Ta3  1  0.90254400  0.09745600  0.25000000  1
  O  O4  1  0.79606400  0.73559400  0.20576000  1
  O  O5  1  0.26440600  0.20393600  0.29424000  1
  O  O6  1  0.20393600  0.26440600  0.79424000  1
  O  O7  1  0.73559400  0.79606400  0.70576000  1
  O  O8  1  0.35918400  0.94439500  0.83774400  1
  O  O9  1  0.05560500  0.64081600  0.66225600  1
  O  O10  1  0.64081600  0.05560500  0.16225600  1
  O  O11  1  0.94439500  0.35918400  0.33774400  1
