# generated using pymatgen
data_Ce2Si4Pt7
_symmetry_space_group_name_H-M   'P 1'
_cell_length_a   4.05059400
_cell_length_b   11.31528800
_cell_length_c   19.81063100
_cell_angle_alpha   90.00000000
_cell_angle_beta   90.00000000
_cell_angle_gamma   90.00000000
_symmetry_Int_Tables_number   1
_chemical_formula_structural   Ce2Si4Pt7
_chemical_formula_sum   'Ce8 Si16 Pt28'
_cell_volume   907.99328349
_cell_formula_units_Z   4
loop_
 _symmetry_equiv_pos_site_id
 _symmetry_equiv_pos_as_xyz
  1  'x, y, z'
loop_
 _atom_site_type_symbol
 _atom_site_label
 _atom_site_symmetry_multiplicity
 _atom_site_fract_x
 _atom_site_fract_y
 _atom_site_fract_z
 _atom_site_occupancy
  Ce  Ce0  1  0.25000000  0.97875700  0.71763100  1
  Ce  Ce1  1  0.25000000  0.52124300  0.21763100  1
  Ce  Ce2  1  0.75000000  0.47875700  0.78236900  1
  Ce  Ce3  1  0.75000000  0.24312600  0.47107600  1
  Ce  Ce4  1  0.25000000  0.74312600  0.02892400  1
  Ce  Ce5  1  0.25000000  0.75687400  0.52892400  1
  Ce  Ce6  1  0.75000000  0.25687400  0.97107600  1
  Ce  Ce7  1  0.75000000  0.02124300  0.28236900  1
  Si  Si8  1  0.25000000  0.79953500  0.24517000  1
  Si  Si9  1  0.75000000  0.57522400  0.58650800  1
  Si  Si10  1  0.25000000  0.42477600  0.41349200  1
  Si  Si11  1  0.75000000  0.20046500  0.75483000  1
  Si  Si12  1  0.75000000  0.74796900  0.90552500  1
  Si  Si13  1  0.25000000  0.06141400  0.41469200  1
  Si  Si14  1  0.25000000  0.24796900  0.59447500  1
  Si  Si15  1  0.25000000  0.43858600  0.91469200  1
  Si  Si16  1  0.75000000  0.93858500  0.58530800  1
  Si  Si17  1  0.75000000  0.75203100  0.40552500  1
  Si  Si18  1  0.75000000  0.56141500  0.08530800  1
  Si  Si19  1  0.25000000  0.25203100  0.09447500  1
  Si  Si20  1  0.75000000  0.29953500  0.25483000  1
  Si  Si21  1  0.25000000  0.07522400  0.91349200  1
  Si  Si22  1  0.75000000  0.92477600  0.08650800  1
  Si  Si23  1  0.25000000  0.70046500  0.74517000  1
  Pt  Pt24  1  0.25000000  0.25940800  0.85105400  1
  Pt  Pt25  1  0.25000000  0.62895900  0.86343900  1
  Pt  Pt26  1  0.75000000  0.44212400  0.34126800  1
  Pt  Pt27  1  0.75000000  0.80618800  0.78488400  1
  Pt  Pt28  1  0.25000000  0.62129000  0.37184100  1
  Pt  Pt29  1  0.25000000  0.87871000  0.87184100  1
  Pt  Pt30  1  0.25000000  0.24059200  0.35105400  1
  Pt  Pt31  1  0.75000000  0.05787600  0.84126800  1
  Pt  Pt32  1  0.25000000  0.43400200  0.53277800  1
  Pt  Pt33  1  0.25000000  0.06599800  0.03277800  1
  Pt  Pt34  1  0.75000000  0.55081200  0.95866500  1
  Pt  Pt35  1  0.75000000  0.94918800  0.45866500  1
  Pt  Pt36  1  0.75000000  0.37871000  0.62815900  1
  Pt  Pt37  1  0.25000000  0.55787600  0.65873200  1
  Pt  Pt38  1  0.25000000  0.87104100  0.36343900  1
  Pt  Pt39  1  0.75000000  0.56599800  0.46722200  1
  Pt  Pt40  1  0.25000000  0.19381200  0.21511600  1
  Pt  Pt41  1  0.25000000  0.30618800  0.71511600  1
  Pt  Pt42  1  0.75000000  0.74059200  0.14894600  1
  Pt  Pt43  1  0.25000000  0.94212400  0.15873200  1
  Pt  Pt44  1  0.75000000  0.12129000  0.12815900  1
  Pt  Pt45  1  0.75000000  0.93400200  0.96722200  1
  Pt  Pt46  1  0.75000000  0.75940800  0.64894600  1
  Pt  Pt47  1  0.75000000  0.37104100  0.13656100  1
  Pt  Pt48  1  0.25000000  0.05081200  0.54133500  1
  Pt  Pt49  1  0.75000000  0.12895900  0.63656100  1
  Pt  Pt50  1  0.75000000  0.69381200  0.28488400  1
  Pt  Pt51  1  0.25000000  0.44918800  0.04133500  1
