# generated using pymatgen
data_Tl4Cu4(P2O7)3
_symmetry_space_group_name_H-M   'P 1'
_cell_length_a   9.77019215
_cell_length_b   10.78343058
_cell_length_c   20.48049907
_cell_angle_alpha   90.00000000
_cell_angle_beta   90.00000000
_cell_angle_gamma   90.00000000
_symmetry_Int_Tables_number   1
_chemical_formula_structural   Tl4Cu4(P2O7)3
_chemical_formula_sum   'Tl16 Cu16 P24 O84'
_cell_volume   2157.74732679
_cell_formula_units_Z   4
loop_
 _symmetry_equiv_pos_site_id
 _symmetry_equiv_pos_as_xyz
  1  'x, y, z'
loop_
 _atom_site_type_symbol
 _atom_site_label
 _atom_site_symmetry_multiplicity
 _atom_site_fract_x
 _atom_site_fract_y
 _atom_site_fract_z
 _atom_site_occupancy
  Tl  Tl0  1  0.33564701  0.74172688  0.60434344  1
  Tl  Tl1  1  0.83564701  0.25827312  0.60434344  1
  Tl  Tl2  1  0.25000000  0.60674872  0.00000000  1
  Tl  Tl3  1  0.33564701  0.25827312  0.89565656  1
  Tl  Tl4  1  0.66435299  0.74172688  0.10434344  1
  Tl  Tl5  1  0.66435299  0.25827312  0.39565656  1
  Tl  Tl6  1  0.16435299  0.74172688  0.39565656  1
  Tl  Tl7  1  0.16435299  0.25827312  0.10434344  1
  Tl  Tl8  1  0.32908534  0.00000000  0.25000000  1
  Tl  Tl9  1  0.67091466  0.00000000  0.75000000  1
  Tl  Tl10  1  0.75000000  0.39325128  0.00000000  1
  Tl  Tl11  1  0.75000000  0.60674872  0.50000000  1
  Tl  Tl12  1  0.82908534  0.00000000  0.25000000  1
  Tl  Tl13  1  0.17091466  0.00000000  0.75000000  1
  Tl  Tl14  1  0.83564701  0.74172688  0.89565656  1
  Tl  Tl15  1  0.25000000  0.39325128  0.50000000  1
  Cu  Cu16  1  0.97571710  0.15700437  0.91510473  1
  Cu  Cu17  1  0.18580174  0.34752283  0.67274237  1
  Cu  Cu18  1  0.52428290  0.15700437  0.08489527  1
  Cu  Cu19  1  0.47571710  0.84299563  0.91510473  1
  Cu  Cu20  1  0.02428290  0.15700437  0.41510473  1
  Cu  Cu21  1  0.31419826  0.34752283  0.32725763  1
  Cu  Cu22  1  0.97571710  0.84299563  0.58489527  1
  Cu  Cu23  1  0.81419826  0.65247717  0.32725763  1
  Cu  Cu24  1  0.68580174  0.65247717  0.67274237  1
  Cu  Cu25  1  0.52428290  0.84299563  0.41510473  1
  Cu  Cu26  1  0.02428290  0.84299563  0.08489527  1
  Cu  Cu27  1  0.31419826  0.65247717  0.17274237  1
  Cu  Cu28  1  0.47571710  0.15700437  0.58489527  1
  Cu  Cu29  1  0.68580174  0.34752283  0.82725763  1
  Cu  Cu30  1  0.81419826  0.34752283  0.17274237  1
  Cu  Cu31  1  0.18580174  0.65247717  0.82725763  1
  P  P32  1  0.47823193  0.55877651  0.87129823  1
  P  P33  1  0.84893804  0.91157886  0.44878724  1
  P  P34  1  0.02176807  0.44122349  0.37129823  1
  P  P35  1  0.15106196  0.08842114  0.55121276  1
  P  P36  1  0.95997215  0.26313249  0.77012920  1
  P  P37  1  0.45997215  0.73686751  0.77012920  1
  P  P38  1  0.52176807  0.44122349  0.12870177  1
  P  P39  1  0.02176807  0.55877651  0.12870177  1
  P  P40  1  0.54002785  0.73686751  0.27012920  1
  P  P41  1  0.47823193  0.44122349  0.62870177  1
  P  P42  1  0.34893804  0.91157886  0.05121276  1
  P  P43  1  0.04002785  0.73686751  0.22987080  1
  P  P44  1  0.97823193  0.44122349  0.87129823  1
  P  P45  1  0.84893804  0.08842114  0.05121276  1
  P  P46  1  0.45997215  0.26313249  0.72987080  1
  P  P47  1  0.15106196  0.91157886  0.94878724  1
  P  P48  1  0.54002785  0.26313249  0.22987080  1
  P  P49  1  0.65106196  0.08842114  0.94878724  1
  P  P50  1  0.95997215  0.73686751  0.72987080  1
  P  P51  1  0.65106196  0.91157886  0.55121276  1
  P  P52  1  0.52176807  0.55877651  0.37129823  1
  P  P53  1  0.97823193  0.55877651  0.62870177  1
  P  P54  1  0.34893804  0.08842114  0.44878724  1
  P  P55  1  0.04002785  0.26313249  0.27012920  1
  O  O56  1  0.95276472  0.43253630  0.11834849  1
  O  O57  1  0.46359882  0.84895384  0.01081312  1
  O  O58  1  0.59634504  0.98919235  0.90231290  1
  O  O59  1  0.52813254  0.38893120  0.69974550  1
  O  O60  1  0.97939136  0.65416208  0.07727158  1
  O  O61  1  0.47186746  0.38893120  0.19974550  1
  O  O62  1  0.03514026  0.23946118  0.70537006  1
  O  O63  1  0.96485974  0.23946118  0.20537006  1
  O  O64  1  0.25000000  0.98648461  0.00000000  1
  O  O65  1  0.47939136  0.65416208  0.42272842  1
  O  O66  1  0.46359882  0.15104616  0.48918688  1
  O  O67  1  0.97939136  0.34583792  0.42272842  1
  O  O68  1  0.97186746  0.38893120  0.30025450  1
  O  O69  1  0.01369833  0.84298047  0.18163704  1
  O  O70  1  0.25750709  0.81675819  0.08629033  1
  O  O71  1  0.40365496  0.98919235  0.40231290  1
  O  O72  1  0.96359882  0.84895384  0.48918688  1
  O  O73  1  0.03640118  0.84895384  0.98918688  1
  O  O74  1  0.19284735  0.71249658  0.24225609  1
  O  O75  1  0.98630167  0.15701953  0.81836296  1
  O  O76  1  0.53640118  0.84895384  0.51081312  1
  O  O77  1  0.01369833  0.15701953  0.31836296  1
  O  O78  1  0.25000000  0.01351539  0.50000000  1
  O  O79  1  0.51369833  0.84298047  0.31836296  1
  O  O80  1  0.80715265  0.71249658  0.74225609  1
  O  O81  1  0.17807376  0.53938030  0.13389864  1
  O  O82  1  0.97186746  0.61106880  0.19974550  1
  O  O83  1  0.51369833  0.15701953  0.18163704  1
  O  O84  1  0.03514026  0.76053882  0.79462994  1
  O  O85  1  0.32192624  0.46061970  0.63389864  1
  O  O86  1  0.52060864  0.65416208  0.92272842  1
  O  O87  1  0.19284735  0.28750342  0.25774391  1
  O  O88  1  0.80715265  0.28750342  0.75774391  1
  O  O89  1  0.96359882  0.15104616  0.01081312  1
  O  O90  1  0.54723528  0.56746370  0.61834849  1
  O  O91  1  0.75750709  0.81675819  0.41370967  1
  O  O92  1  0.96485974  0.76053882  0.29462994  1
  O  O93  1  0.02813254  0.38893120  0.80025450  1
  O  O94  1  0.69284735  0.28750342  0.24225609  1
  O  O95  1  0.52060864  0.34583792  0.57727158  1
  O  O96  1  0.04723528  0.56746370  0.88165151  1
  O  O97  1  0.53514026  0.23946118  0.79462994  1
  O  O98  1  0.53514026  0.76053882  0.70537006  1
  O  O99  1  0.24249291  0.81675819  0.91370967  1
  O  O100  1  0.32192624  0.53938030  0.86610136  1
  O  O101  1  0.53640118  0.15104616  0.98918688  1
  O  O102  1  0.48630167  0.84298047  0.81836296  1
  O  O103  1  0.30715265  0.71249658  0.75774391  1
  O  O104  1  0.09634504  0.98919235  0.59768710  1
  O  O105  1  0.90365496  0.98919235  0.09768710  1
  O  O106  1  0.90365496  0.01080765  0.40231290  1
  O  O107  1  0.17807376  0.46061970  0.36610136  1
  O  O108  1  0.04723528  0.43253630  0.61834849  1
  O  O109  1  0.46485974  0.23946118  0.29462994  1
  O  O110  1  0.48630167  0.15701953  0.68163704  1
  O  O111  1  0.74249291  0.18324181  0.91370967  1
  O  O112  1  0.67807376  0.53938030  0.36610136  1
  O  O113  1  0.40365496  0.01080765  0.09768710  1
  O  O114  1  0.67807376  0.46061970  0.13389864  1
  O  O115  1  0.69284735  0.71249658  0.25774391  1
  O  O116  1  0.59634504  0.01080765  0.59768710  1
  O  O117  1  0.09634504  0.01080765  0.90231290  1
  O  O118  1  0.02060864  0.65416208  0.57727158  1
  O  O119  1  0.45276472  0.43253630  0.38165151  1
  O  O120  1  0.95276472  0.56746370  0.38165151  1
  O  O121  1  0.98630167  0.84298047  0.68163704  1
  O  O122  1  0.52813254  0.61106880  0.80025450  1
  O  O123  1  0.75000000  0.98648461  0.50000000  1
  O  O124  1  0.75750709  0.18324181  0.08629033  1
  O  O125  1  0.47186746  0.61106880  0.30025450  1
  O  O126  1  0.54723528  0.43253630  0.88165151  1
  O  O127  1  0.46485974  0.76053882  0.20537006  1
  O  O128  1  0.75000000  0.01351539  0.00000000  1
  O  O129  1  0.03640118  0.15104616  0.51081312  1
  O  O130  1  0.74249291  0.81675819  0.58629033  1
  O  O131  1  0.02813254  0.61106880  0.69974550  1
  O  O132  1  0.82192624  0.53938030  0.63389864  1
  O  O133  1  0.45276472  0.56746370  0.11834849  1
  O  O134  1  0.82192624  0.46061970  0.86610136  1
  O  O135  1  0.02060864  0.34583792  0.92272842  1
  O  O136  1  0.25750709  0.18324181  0.41370967  1
  O  O137  1  0.47939136  0.34583792  0.07727158  1
  O  O138  1  0.30715265  0.28750342  0.74225609  1
  O  O139  1  0.24249291  0.18324181  0.58629033  1
