# generated using pymatgen
data_Ga2NiCl8
_symmetry_space_group_name_H-M   'P 1'
_cell_length_a   9.63753289
_cell_length_b   9.63753289
_cell_length_c   11.69831664
_cell_angle_alpha   54.39826202
_cell_angle_beta   54.39826202
_cell_angle_gamma   49.20859403
_symmetry_Int_Tables_number   1
_chemical_formula_structural   Ga2NiCl8
_chemical_formula_sum   'Ga4 Ni2 Cl16'
_cell_volume   631.89463639
_cell_formula_units_Z   2
loop_
 _symmetry_equiv_pos_site_id
 _symmetry_equiv_pos_as_xyz
  1  'x, y, z'
loop_
 _atom_site_type_symbol
 _atom_site_label
 _atom_site_symmetry_multiplicity
 _atom_site_fract_x
 _atom_site_fract_y
 _atom_site_fract_z
 _atom_site_occupancy
  Ga  Ga0  1  0.67257500  0.15933600  0.03271100  1
  Ga  Ga1  1  0.32742500  0.84066400  0.96728900  1
  Ga  Ga2  1  0.84066400  0.32742500  0.46728900  1
  Ga  Ga3  1  0.15933600  0.67257500  0.53271100  1
  Ni  Ni4  1  0.99721200  0.00278800  0.75000000  1
  Ni  Ni5  1  0.00278800  0.99721200  0.25000000  1
  Cl  Cl6  1  0.86817700  0.83862500  0.50874300  1
  Cl  Cl7  1  0.13182300  0.16137500  0.49125700  1
  Cl  Cl8  1  0.68774900  0.62819400  0.44193500  1
  Cl  Cl9  1  0.62819400  0.68774900  0.94193500  1
  Cl  Cl10  1  0.83862500  0.86817700  0.00874300  1
  Cl  Cl11  1  0.85742300  0.30432600  0.28019700  1
  Cl  Cl12  1  0.14691900  0.71814000  0.18973700  1
  Cl  Cl13  1  0.28186000  0.85308100  0.31026300  1
  Cl  Cl14  1  0.14257700  0.69567400  0.71980300  1
  Cl  Cl15  1  0.31225100  0.37180600  0.55806500  1
  Cl  Cl16  1  0.69567400  0.14257700  0.21980300  1
  Cl  Cl17  1  0.16137500  0.13182300  0.99125700  1
  Cl  Cl18  1  0.37180600  0.31225100  0.05806500  1
  Cl  Cl19  1  0.30432600  0.85742300  0.78019700  1
  Cl  Cl20  1  0.71814000  0.14691900  0.68973700  1
  Cl  Cl21  1  0.85308100  0.28186000  0.81026300  1
