# generated using pymatgen
data_Ba3NaRu2O9
_symmetry_space_group_name_H-M   'P 1'
_cell_length_a   11.92612284
_cell_length_b   11.91036496
_cell_length_c   14.60253563
_cell_angle_alpha   90.00000000
_cell_angle_beta   90.00000000
_cell_angle_gamma   120.04377545
_symmetry_Int_Tables_number   1
_chemical_formula_structural   Ba3NaRu2O9
_chemical_formula_sum   'Ba24 Na8 Ru16 O72'
_cell_volume   1795.52523430
_cell_formula_units_Z   8
loop_
 _symmetry_equiv_pos_site_id
 _symmetry_equiv_pos_as_xyz
  1  'x, y, z'
loop_
 _atom_site_type_symbol
 _atom_site_label
 _atom_site_symmetry_multiplicity
 _atom_site_fract_x
 _atom_site_fract_y
 _atom_site_fract_z
 _atom_site_occupancy
  Ba  Ba0  1  0.99868407  0.99736815  0.75000000  1
  Ba  Ba1  1  0.00131593  0.00263185  0.25000000  1
  Ba  Ba2  1  0.66184072  0.82389155  0.59621986  1
  Ba  Ba3  1  0.83199801  0.66399603  0.41435591  1
  Ba  Ba4  1  0.16205083  0.82389155  0.59621986  1
  Ba  Ba5  1  0.99482231  0.49144353  0.75000000  1
  Ba  Ba6  1  0.16205083  0.82389155  0.90378014  1
  Ba  Ba7  1  0.66184072  0.82389155  0.90378014  1
  Ba  Ba8  1  0.49850645  0.99701289  0.75000000  1
  Ba  Ba9  1  0.33815928  0.17610845  0.09621986  1
  Ba  Ba10  1  0.33203509  0.66407018  0.08469541  1
  Ba  Ba11  1  0.83794917  0.17610845  0.09621986  1
  Ba  Ba12  1  0.16800199  0.33600397  0.91435591  1
  Ba  Ba13  1  0.50149355  0.00298711  0.25000000  1
  Ba  Ba14  1  0.00517769  0.50855647  0.25000000  1
  Ba  Ba15  1  0.83794917  0.17610845  0.40378014  1
  Ba  Ba16  1  0.66796491  0.33592982  0.58469541  1
  Ba  Ba17  1  0.83199801  0.66399603  0.08564409  1
  Ba  Ba18  1  0.33203509  0.66407018  0.41530459  1
  Ba  Ba19  1  0.66796491  0.33592982  0.91530459  1
  Ba  Ba20  1  0.49662122  0.49144353  0.75000000  1
  Ba  Ba21  1  0.50337878  0.50855647  0.25000000  1
  Ba  Ba22  1  0.33815928  0.17610845  0.40378014  1
  Ba  Ba23  1  0.16800199  0.33600397  0.58564409  1
  Na  Na24  1  0.50000000  0.50000000  0.00000000  1
  Na  Na25  1  0.00000000  0.00000000  0.00000000  1
  Na  Na26  1  0.00000000  0.50000000  0.50000000  1
  Na  Na27  1  0.00000000  0.00000000  0.50000000  1
  Na  Na28  1  0.50000000  0.00000000  0.00000000  1
  Na  Na29  1  0.00000000  0.50000000  0.00000000  1
  Na  Na30  1  0.50000000  0.00000000  0.50000000  1
  Na  Na31  1  0.50000000  0.50000000  0.50000000  1
  Ru  Ru32  1  0.83098828  0.16187155  0.65375789  1
  Ru  Ru33  1  0.16893363  0.33786726  0.33662971  1
  Ru  Ru34  1  0.66911673  0.83812845  0.15375789  1
  Ru  Ru35  1  0.66881755  0.33763510  0.33654093  1
  Ru  Ru36  1  0.16893363  0.33786726  0.16337029  1
  Ru  Ru37  1  0.16901172  0.83812845  0.34624211  1
  Ru  Ru38  1  0.66881755  0.33763510  0.16345907  1
  Ru  Ru39  1  0.33118245  0.66236490  0.83654093  1
  Ru  Ru40  1  0.33088327  0.16187155  0.84624211  1
  Ru  Ru41  1  0.83106637  0.66213274  0.83662971  1
  Ru  Ru42  1  0.66911673  0.83812845  0.34624211  1
  Ru  Ru43  1  0.83106637  0.66213274  0.66337029  1
  Ru  Ru44  1  0.33088327  0.16187155  0.65375789  1
  Ru  Ru45  1  0.33118245  0.66236490  0.66345907  1
  Ru  Ru46  1  0.83098828  0.16187155  0.84624211  1
  Ru  Ru47  1  0.16901172  0.83812845  0.15375789  1
  O  O48  1  0.09448215  0.68375761  0.41440862  1
  O  O49  1  0.59222512  0.41588698  0.40635757  1
  O  O50  1  0.58927546  0.68375761  0.41440862  1
  O  O51  1  0.17436429  0.08775209  0.59143448  1
  O  O52  1  0.91338779  0.08775209  0.59143448  1
  O  O53  1  0.49053748  0.74506750  0.75000000  1
  O  O54  1  0.74801450  0.49602900  0.25000000  1
  O  O55  1  0.17633814  0.58411302  0.59364243  1
  O  O56  1  0.40697679  0.81395358  0.58968691  1
  O  O57  1  0.58927546  0.68375761  0.08559138  1
  O  O58  1  0.90739751  0.58447882  0.90738128  1
  O  O59  1  0.24771962  0.25766075  0.25000000  1
  O  O60  1  0.40777488  0.58411302  0.90635757  1
  O  O61  1  0.32291869  0.41552118  0.40738128  1
  O  O62  1  0.82366186  0.41588698  0.09364243  1
  O  O63  1  0.40798151  0.08186591  0.90792004  1
  O  O64  1  0.40798151  0.08186591  0.59207996  1
  O  O65  1  0.73753599  0.75978723  0.25000000  1
  O  O66  1  0.74546997  0.25493250  0.25000000  1
  O  O67  1  0.74601146  0.98617795  0.25000000  1
  O  O68  1  0.40777488  0.58411302  0.59364243  1
  O  O69  1  0.32611559  0.91813409  0.09207996  1
  O  O70  1  0.90739751  0.58447882  0.59261872  1
  O  O71  1  0.82563571  0.91224791  0.09143448  1
  O  O72  1  0.24016649  0.98617795  0.25000000  1
  O  O73  1  0.40697679  0.81395358  0.91031309  1
  O  O74  1  0.25398854  0.01382205  0.75000000  1
  O  O75  1  0.75827737  0.23570255  0.75000000  1
  O  O76  1  0.59302321  0.18604642  0.41031309  1
  O  O77  1  0.17633814  0.58411302  0.90635757  1
  O  O78  1  0.00994113  0.25766075  0.25000000  1
  O  O79  1  0.91338779  0.08775209  0.90856552  1
  O  O80  1  0.99005887  0.74233925  0.75000000  1
  O  O81  1  0.17436429  0.08775209  0.90856552  1
  O  O82  1  0.75983351  0.01382205  0.75000000  1
  O  O83  1  0.67388441  0.08186591  0.59207996  1
  O  O84  1  0.09260249  0.41552118  0.40738128  1
  O  O85  1  0.25198550  0.50397100  0.75000000  1
  O  O86  1  0.59201849  0.91813409  0.09207996  1
  O  O87  1  0.41072454  0.31624239  0.91440862  1
  O  O88  1  0.32291869  0.41552118  0.09261872  1
  O  O89  1  0.67708131  0.58447882  0.90738128  1
  O  O90  1  0.97774876  0.24021277  0.75000000  1
  O  O91  1  0.08661221  0.91224791  0.09143448  1
  O  O92  1  0.24842373  0.49684746  0.25000000  1
  O  O93  1  0.09228679  0.18457358  0.09160889  1
  O  O94  1  0.09448215  0.68375761  0.08559138  1
  O  O95  1  0.82563571  0.91224791  0.40856552  1
  O  O96  1  0.59222512  0.41588698  0.09364243  1
  O  O97  1  0.75228038  0.74233925  0.75000000  1
  O  O98  1  0.75157627  0.50315254  0.75000000  1
  O  O99  1  0.09228679  0.18457358  0.40839111  1
  O  O100  1  0.90551785  0.31624239  0.58559138  1
  O  O101  1  0.90771321  0.81542642  0.59160889  1
  O  O102  1  0.32611559  0.91813409  0.40792004  1
  O  O103  1  0.09260249  0.41552118  0.09261872  1
  O  O104  1  0.52257482  0.76429745  0.25000000  1
  O  O105  1  0.02225124  0.75978723  0.25000000  1
  O  O106  1  0.82366186  0.41588698  0.40635757  1
  O  O107  1  0.90771321  0.81542642  0.90839111  1
  O  O108  1  0.90551785  0.31624239  0.91440862  1
  O  O109  1  0.59302321  0.18604642  0.08968691  1
  O  O110  1  0.08661221  0.91224791  0.40856552  1
  O  O111  1  0.24172263  0.76429745  0.25000000  1
  O  O112  1  0.59201849  0.91813409  0.40792004  1
  O  O113  1  0.47742518  0.23570255  0.75000000  1
  O  O114  1  0.67388441  0.08186591  0.90792004  1
  O  O115  1  0.67708131  0.58447882  0.59261872  1
  O  O116  1  0.41072454  0.31624239  0.58559138  1
  O  O117  1  0.26246401  0.24021277  0.75000000  1
  O  O118  1  0.50946252  0.25493250  0.25000000  1
  O  O119  1  0.25453003  0.74506750  0.75000000  1
