# generated using pymatgen
data_SrZrS3
_symmetry_space_group_name_H-M   'P 1'
_cell_length_a   3.84618100
_cell_length_b   8.60624400
_cell_length_c   14.06768200
_cell_angle_alpha   90.00000000
_cell_angle_beta   90.00000000
_cell_angle_gamma   90.00000000
_symmetry_Int_Tables_number   1
_chemical_formula_structural   SrZrS3
_chemical_formula_sum   'Sr4 Zr4 S12'
_cell_volume   465.65676369
_cell_formula_units_Z   4
loop_
 _symmetry_equiv_pos_site_id
 _symmetry_equiv_pos_as_xyz
  1  'x, y, z'
loop_
 _atom_site_type_symbol
 _atom_site_label
 _atom_site_symmetry_multiplicity
 _atom_site_fract_x
 _atom_site_fract_y
 _atom_site_fract_z
 _atom_site_occupancy
  Sr  Sr0  1  0.25000000  0.06686400  0.17904500  1
  Sr  Sr1  1  0.75000000  0.93313600  0.82095500  1
  Sr  Sr2  1  0.25000000  0.56686400  0.32095500  1
  Sr  Sr3  1  0.75000000  0.43313600  0.67904500  1
  Zr  Zr4  1  0.75000000  0.67179700  0.05726600  1
  Zr  Zr5  1  0.75000000  0.17179700  0.44273400  1
  Zr  Zr6  1  0.25000000  0.82820300  0.55726600  1
  Zr  Zr7  1  0.25000000  0.32820300  0.94273400  1
  S  S8  1  0.75000000  0.66270100  0.48640000  1
  S  S9  1  0.25000000  0.20610900  0.78419300  1
  S  S10  1  0.25000000  0.48353800  0.10634300  1
  S  S11  1  0.25000000  0.98353800  0.39365700  1
  S  S12  1  0.25000000  0.33729900  0.51360000  1
  S  S13  1  0.75000000  0.01646200  0.60634300  1
  S  S14  1  0.75000000  0.16270100  0.01360000  1
  S  S15  1  0.25000000  0.70610900  0.71580700  1
  S  S16  1  0.75000000  0.29389100  0.28419300  1
  S  S17  1  0.75000000  0.79389100  0.21580700  1
  S  S18  1  0.25000000  0.83729900  0.98640000  1
  S  S19  1  0.75000000  0.51646200  0.89365700  1
