# generated using pymatgen
data_K2FeSn(PO4)3
_symmetry_space_group_name_H-M   'P 1'
_cell_length_a   10.09479400
_cell_length_b   10.09479400
_cell_length_c   10.09479400
_cell_angle_alpha   90.00000000
_cell_angle_beta   90.00000000
_cell_angle_gamma   90.00000000
_symmetry_Int_Tables_number   1
_chemical_formula_structural   K2FeSn(PO4)3
_chemical_formula_sum   'K8 Fe4 Sn4 P12 O48'
_cell_volume   1028.70862888
_cell_formula_units_Z   4
loop_
 _symmetry_equiv_pos_site_id
 _symmetry_equiv_pos_as_xyz
  1  'x, y, z'
loop_
 _atom_site_type_symbol
 _atom_site_label
 _atom_site_symmetry_multiplicity
 _atom_site_fract_x
 _atom_site_fract_y
 _atom_site_fract_z
 _atom_site_occupancy
  K  K0  1  0.06284700  0.43715300  0.56284700  1
  K  K1  1  0.20187800  0.79812200  0.29812200  1
  K  K2  1  0.29812200  0.20187800  0.79812200  1
  K  K3  1  0.43715300  0.56284700  0.06284700  1
  K  K4  1  0.56284700  0.06284700  0.43715300  1
  K  K5  1  0.70187800  0.70187800  0.70187800  1
  K  K6  1  0.79812200  0.29812200  0.20187800  1
  K  K7  1  0.93715300  0.93715300  0.93715300  1
  Fe  Fe8  1  0.14660000  0.14660000  0.14660000  1
  Fe  Fe9  1  0.35340000  0.85340000  0.64660000  1
  Fe  Fe10  1  0.64660000  0.35340000  0.85340000  1
  Fe  Fe11  1  0.85340000  0.64660000  0.35340000  1
  Sn  Sn12  1  0.08613800  0.58613800  0.91386200  1
  Sn  Sn13  1  0.41386200  0.41386200  0.41386200  1
  Sn  Sn14  1  0.58613800  0.91386200  0.08613800  1
  Sn  Sn15  1  0.91386200  0.08613800  0.58613800  1
  P  P16  1  0.04050100  0.77089300  0.62423100  1
  P  P17  1  0.12423100  0.45949900  0.22910700  1
  P  P18  1  0.22910700  0.12423100  0.45949900  1
  P  P19  1  0.27089300  0.87576900  0.95949900  1
  P  P20  1  0.37576900  0.54050100  0.72910700  1
  P  P21  1  0.45949900  0.22910700  0.12423100  1
  P  P22  1  0.54050100  0.72910700  0.37576900  1
  P  P23  1  0.62423100  0.04050100  0.77089300  1
  P  P24  1  0.72910700  0.37576900  0.54050100  1
  P  P25  1  0.77089300  0.62423100  0.04050100  1
  P  P26  1  0.87576900  0.95949900  0.27089300  1
  P  P27  1  0.95949900  0.27089300  0.87576900  1
  O  O28  1  0.99803900  0.41675800  0.84369300  1
  O  O29  1  0.01257100  0.69255100  0.75526900  1
  O  O30  1  0.01897200  0.54920500  0.29196500  1
  O  O31  1  0.04920500  0.20803500  0.98102800  1
  O  O32  1  0.08186200  0.31344300  0.23856600  1
  O  O33  1  0.08324200  0.15630700  0.49803900  1
  O  O34  1  0.15630700  0.49803900  0.08324200  1
  O  O35  1  0.18655700  0.76143400  0.58186200  1
  O  O36  1  0.19255100  0.74473100  0.98742900  1
  O  O37  1  0.20803500  0.98102800  0.04920500  1
  O  O38  1  0.23856600  0.08186200  0.31344300  1
  O  O39  1  0.24473100  0.51257100  0.80744900  1
  O  O40  1  0.25526900  0.48742900  0.30744900  1
  O  O41  1  0.26143400  0.91813800  0.81344300  1
  O  O42  1  0.29196500  0.01897200  0.54920500  1
  O  O43  1  0.30744900  0.25526900  0.48742900  1
  O  O44  1  0.31344300  0.23856600  0.08186200  1
  O  O45  1  0.34369300  0.50196100  0.58324200  1
  O  O46  1  0.41675800  0.84369300  0.99803900  1
  O  O47  1  0.41813800  0.68655700  0.73856600  1
  O  O48  1  0.45079500  0.79196500  0.48102800  1
  O  O49  1  0.48102800  0.45079500  0.79196500  1
  O  O50  1  0.48742900  0.30744900  0.25526900  1
  O  O51  1  0.50196100  0.58324200  0.34369300  1
  O  O52  1  0.49803900  0.08324200  0.15630700  1
  O  O53  1  0.51257100  0.80744900  0.24473100  1
  O  O54  1  0.51897200  0.95079500  0.70803500  1
  O  O55  1  0.54920500  0.29196500  0.01897200  1
  O  O56  1  0.58186200  0.18655700  0.76143400  1
  O  O57  1  0.58324200  0.34369300  0.50196100  1
  O  O58  1  0.65630700  0.00196100  0.91675800  1
  O  O59  1  0.68655700  0.73856600  0.41813800  1
  O  O60  1  0.69255100  0.75526900  0.01257100  1
  O  O61  1  0.70803500  0.51897200  0.95079500  1
  O  O62  1  0.73856600  0.41813800  0.68655700  1
  O  O63  1  0.74473100  0.98742900  0.19255100  1
  O  O64  1  0.75526900  0.01257100  0.69255100  1
  O  O65  1  0.76143400  0.58186200  0.18655700  1
  O  O66  1  0.79196500  0.48102800  0.45079500  1
  O  O67  1  0.80744900  0.24473100  0.51257100  1
  O  O68  1  0.81344300  0.26143400  0.91813800  1
  O  O69  1  0.84369300  0.99803900  0.41675800  1
  O  O70  1  0.91675800  0.65630700  0.00196100  1
  O  O71  1  0.91813800  0.81344300  0.26143400  1
  O  O72  1  0.95079500  0.70803500  0.51897200  1
  O  O73  1  0.98102800  0.04920500  0.20803500  1
  O  O74  1  0.98742900  0.19255100  0.74473100  1
  O  O75  1  0.00196100  0.91675800  0.65630700  1
