# generated using pymatgen
data_Na2CaMg(PO4)2
_symmetry_space_group_name_H-M   'P 1'
_cell_length_a   5.23708100
_cell_length_b   9.23461400
_cell_length_c   13.53139794
_cell_angle_alpha   89.00266147
_cell_angle_beta   90.00000000
_cell_angle_gamma   90.00000000
_symmetry_Int_Tables_number   1
_chemical_formula_structural   Na2CaMg(PO4)2
_chemical_formula_sum   'Na8 Ca4 Mg4 P8 O32'
_cell_volume   654.31203089
_cell_formula_units_Z   4
loop_
 _symmetry_equiv_pos_site_id
 _symmetry_equiv_pos_as_xyz
  1  'x, y, z'
loop_
 _atom_site_type_symbol
 _atom_site_label
 _atom_site_symmetry_multiplicity
 _atom_site_fract_x
 _atom_site_fract_y
 _atom_site_fract_z
 _atom_site_occupancy
  Na  Na0  1  0.72163100  0.58163400  0.60246300  1
  Na  Na1  1  0.27836900  0.41836600  0.39753700  1
  Na  Na2  1  0.22163100  0.41836600  0.89753700  1
  Na  Na3  1  0.72250300  0.91566300  0.90976500  1
  Na  Na4  1  0.77836900  0.58163400  0.10246300  1
  Na  Na5  1  0.77749700  0.91566300  0.40976500  1
  Na  Na6  1  0.27749700  0.08433700  0.09023500  1
  Na  Na7  1  0.22250300  0.08433700  0.59023500  1
  Ca  Ca8  1  0.31876900  0.76437400  0.24912600  1
  Ca  Ca9  1  0.81876900  0.23562600  0.25087400  1
  Ca  Ca10  1  0.68123100  0.23562600  0.75087400  1
  Ca  Ca11  1  0.18123100  0.76437400  0.74912600  1
  Mg  Mg12  1  0.25455500  0.74675700  0.50179100  1
  Mg  Mg13  1  0.75455500  0.25324300  0.99820900  1
  Mg  Mg14  1  0.74544500  0.25324300  0.49820900  1
  Mg  Mg15  1  0.24544500  0.74675700  0.00179100  1
  P  P16  1  0.22733200  0.41337900  0.62995500  1
  P  P17  1  0.72952100  0.91885600  0.63439500  1
  P  P18  1  0.22952100  0.08114400  0.86560500  1
  P  P19  1  0.72733200  0.58662100  0.87004500  1
  P  P20  1  0.77047900  0.91885600  0.13439500  1
  P  P21  1  0.77266800  0.58662100  0.37004500  1
  P  P22  1  0.27266800  0.41337900  0.12995500  1
  P  P23  1  0.27047900  0.08114400  0.36560500  1
  O  O24  1  0.83278900  0.60042600  0.76452400  1
  O  O25  1  0.57906900  0.65826200  0.44148000  1
  O  O26  1  0.07906900  0.34173800  0.05852000  1
  O  O27  1  0.16721100  0.39957400  0.23547600  1
  O  O28  1  0.69129400  0.92214100  0.24352300  1
  O  O29  1  0.69224200  0.07689300  0.59425400  1
  O  O30  1  0.92093100  0.65826200  0.94148000  1
  O  O31  1  0.80775800  0.07689300  0.09425400  1
  O  O32  1  0.19224200  0.92310700  0.90574600  1
  O  O33  1  0.52232800  0.16805400  0.38053200  1
  O  O34  1  0.46264400  0.66498100  0.88051100  1
  O  O35  1  0.33278900  0.39957400  0.73547600  1
  O  O36  1  0.97767200  0.16805400  0.88053200  1
  O  O37  1  0.80870600  0.92214100  0.74352300  1
  O  O38  1  0.19569800  0.57608000  0.59985400  1
  O  O39  1  0.03735600  0.66498100  0.38051100  1
  O  O40  1  0.30430200  0.57608000  0.09985400  1
  O  O41  1  0.02232800  0.83194600  0.11946800  1
  O  O42  1  0.30870600  0.07785900  0.75647700  1
  O  O43  1  0.66721100  0.60042600  0.26452400  1
  O  O44  1  0.94904300  0.84686600  0.57470700  1
  O  O45  1  0.69569800  0.42392000  0.90014600  1
  O  O46  1  0.80430200  0.42392000  0.40014600  1
  O  O47  1  0.96264400  0.33501900  0.61948900  1
  O  O48  1  0.53735600  0.33501900  0.11948900  1
  O  O49  1  0.47767200  0.83194600  0.61946800  1
  O  O50  1  0.05095700  0.15313400  0.42529300  1
  O  O51  1  0.19129400  0.07785900  0.25647700  1
  O  O52  1  0.30775800  0.92310700  0.40574600  1
  O  O53  1  0.42093100  0.34173800  0.55852000  1
  O  O54  1  0.55095700  0.84686600  0.07470700  1
  O  O55  1  0.44904300  0.15313400  0.92529300  1
