# generated using pymatgen
data_Ca28Ga11
_symmetry_space_group_name_H-M   'P 1'
_cell_length_a   5.30046662
_cell_length_b   7.47401256
_cell_length_c   30.96725793
_cell_angle_alpha   96.93111944
_cell_angle_beta   94.90947750
_cell_angle_gamma   90.00000351
_symmetry_Int_Tables_number   1
_chemical_formula_structural   Ca28Ga11
_chemical_formula_sum   'Ca28 Ga11'
_cell_volume   1213.29164880
_cell_formula_units_Z   1
loop_
 _symmetry_equiv_pos_site_id
 _symmetry_equiv_pos_as_xyz
  1  'x, y, z'
loop_
 _atom_site_type_symbol
 _atom_site_label
 _atom_site_symmetry_multiplicity
 _atom_site_fract_x
 _atom_site_fract_y
 _atom_site_fract_z
 _atom_site_occupancy
  Ca  Ca0  1  0.81778309  0.91846046  0.63556619  1
  Ca  Ca1  1  0.56000436  0.23488262  0.12000873  1
  Ca  Ca2  1  0.72403668  0.25369850  0.44807336  1
  Ca  Ca3  1  0.63720385  0.17274629  0.27440771  1
  Ca  Ca4  1  0.32393287  0.24179757  0.64786574  1
  Ca  Ca5  1  0.85315275  0.56695642  0.70630550  1
  Ca  Ca6  1  0.54346474  0.67048607  0.08692948  1
  Ca  Ca7  1  1.00000000  0.55524081  0.00000000  1
  Ca  Ca8  1  0.61733252  0.59430208  0.23466505  1
  Ca  Ca9  1  0.91710936  0.53022358  0.83421871  1
  Ca  Ca10  1  0.26219187  0.25841343  0.52438374  1
  Ca  Ca11  1  0.27596332  0.80562514  0.55192664  1
  Ca  Ca12  1  0.90334463  0.98962145  0.80668925  1
  Ca  Ca13  1  0.36279615  0.89833858  0.72559229  1
  Ca  Ca14  1  0.45653526  0.58355658  0.91307052  1
  Ca  Ca15  1  0.67606713  0.59393183  0.35213426  1
  Ca  Ca16  1  0.43999564  0.11487389  0.87999127  1
  Ca  Ca17  1  0.14684725  0.86065092  0.29369450  1
  Ca  Ca18  1  0.09665537  0.18293220  0.19331075  1
  Ca  Ca19  1  0.79398000  0.46828742  0.58796001  1
  Ca  Ca20  1  0.38266748  0.35963703  0.76533495  1
  Ca  Ca21  1  0.50000000  0.23890020  1.00000000  1
  Ca  Ca22  1  0.73780813  0.73402969  0.47561626  1
  Ca  Ca23  1  0.97009180  0.92988925  0.94018359  1
  Ca  Ca24  1  0.08289064  0.69600486  0.16578129  1
  Ca  Ca25  1  0.20602000  0.88032741  0.41203999  1
  Ca  Ca26  1  0.18221691  0.28289428  0.36443381  1
  Ca  Ca27  1  0.02990820  0.98970566  0.05981641  1
  Ga  Ga28  1  0.68018187  0.00466234  0.36036375  1
  Ga  Ga29  1  0.13935917  0.44836255  0.27871833  1
  Ga  Ga30  1  0.77296943  0.06502397  0.54593886  1
  Ga  Ga31  1  0.95649578  0.31330340  0.91299157  1
  Ga  Ga32  1  0.31981813  0.64429859  0.63963625  1
  Ga  Ga33  1  0.86064083  0.16964422  0.72128167  1
  Ga  Ga34  1  0.04350422  0.40031183  0.08700843  1
  Ga  Ga35  1  0.59087852  0.93129199  0.18175703  1
  Ga  Ga36  1  0.40912148  0.74953495  0.81824297  1
  Ga  Ga37  1  0.22703057  0.51908511  0.45406114  1
  Ga  Ga38  1  0.50000000  0.83206685  0.00000000  1
