# generated using pymatgen
data_NaNi(PO3)3
_symmetry_space_group_name_H-M   'P 1'
_cell_length_a   10.01237100
_cell_length_b   10.71403500
_cell_length_c   13.97174500
_cell_angle_alpha   90.00000000
_cell_angle_beta   90.00000000
_cell_angle_gamma   90.00000000
_symmetry_Int_Tables_number   1
_chemical_formula_structural   NaNi(PO3)3
_chemical_formula_sum   'Na8 Ni8 P24 O72'
_cell_volume   1498.78951098
_cell_formula_units_Z   8
loop_
 _symmetry_equiv_pos_site_id
 _symmetry_equiv_pos_as_xyz
  1  'x, y, z'
loop_
 _atom_site_type_symbol
 _atom_site_label
 _atom_site_symmetry_multiplicity
 _atom_site_fract_x
 _atom_site_fract_y
 _atom_site_fract_z
 _atom_site_occupancy
  Na  Na0  1  0.98794200  0.75200100  0.37527500  1
  Na  Na1  1  0.48794200  0.24799900  0.37527500  1
  Na  Na2  1  0.01205800  0.75200100  0.87527500  1
  Na  Na3  1  0.01205800  0.24799900  0.62472500  1
  Na  Na4  1  0.51205800  0.75200100  0.62472500  1
  Na  Na5  1  0.51205800  0.24799900  0.87527500  1
  Na  Na6  1  0.98794200  0.24799900  0.12472500  1
  Na  Na7  1  0.48794200  0.75200100  0.12472500  1
  Ni  Ni8  1  0.97175200  0.50000000  0.75000000  1
  Ni  Ni9  1  0.50000000  0.00000000  0.50000000  1
  Ni  Ni10  1  0.00000000  0.00000000  0.50000000  1
  Ni  Ni11  1  0.02824800  0.50000000  0.25000000  1
  Ni  Ni12  1  0.50000000  0.00000000  0.00000000  1
  Ni  Ni13  1  0.47175200  0.50000000  0.75000000  1
  Ni  Ni14  1  0.00000000  0.00000000  0.00000000  1
  Ni  Ni15  1  0.52824800  0.50000000  0.25000000  1
  P  P16  1  0.23641000  0.04407500  0.85243300  1
  P  P17  1  0.71486900  0.47463700  0.60187400  1
  P  P18  1  0.71486900  0.52536300  0.89812600  1
  P  P19  1  0.21486900  0.52536300  0.60187400  1
  P  P20  1  0.54635400  0.74751600  0.87467800  1
  P  P21  1  0.76359000  0.95592500  0.14756700  1
  P  P22  1  0.95364600  0.74751600  0.12532200  1
  P  P23  1  0.78513100  0.52536300  0.10187400  1
  P  P24  1  0.95364600  0.25248400  0.37467800  1
  P  P25  1  0.45364600  0.25248400  0.12532200  1
  P  P26  1  0.45364600  0.74751600  0.37467800  1
  P  P27  1  0.54635400  0.25248400  0.62532200  1
  P  P28  1  0.04635400  0.25248400  0.87467800  1
  P  P29  1  0.23641000  0.95592500  0.64756700  1
  P  P30  1  0.21486900  0.47463700  0.89812600  1
  P  P31  1  0.28513100  0.52536300  0.39812600  1
  P  P32  1  0.76359000  0.04407500  0.35243300  1
  P  P33  1  0.26359000  0.04407500  0.14756700  1
  P  P34  1  0.28513100  0.47463700  0.10187400  1
  P  P35  1  0.26359000  0.95592500  0.35243300  1
  P  P36  1  0.78513100  0.47463700  0.39812600  1
  P  P37  1  0.73641000  0.95592500  0.85243300  1
  P  P38  1  0.73641000  0.04407500  0.64756700  1
  P  P39  1  0.04635400  0.74751600  0.62532200  1
  O  O40  1  0.65958300  0.56811400  0.14981100  1
  O  O41  1  0.85624300  0.08235700  0.59006600  1
  O  O42  1  0.13342500  0.35227300  0.93478700  1
  O  O43  1  0.36657500  0.35227300  0.06521300  1
  O  O44  1  0.02762500  0.82278700  0.05197500  1
  O  O45  1  0.84255800  0.83049500  0.18008700  1
  O  O46  1  0.86657500  0.35227300  0.43478700  1
  O  O47  1  0.52762500  0.82278700  0.44802500  1
  O  O48  1  0.13796300  0.95149500  0.89199600  1
  O  O49  1  0.84041700  0.56811400  0.85018900  1
  O  O50  1  0.86203700  0.04850500  0.10800400  1
  O  O51  1  0.34255800  0.16950500  0.18008700  1
  O  O52  1  0.34255800  0.83049500  0.31991300  1
  O  O53  1  0.13796300  0.04850500  0.60800400  1
  O  O54  1  0.47237500  0.17721300  0.55197500  1
  O  O55  1  0.13342500  0.64772700  0.56521300  1
  O  O56  1  0.97237500  0.82278700  0.55197500  1
  O  O57  1  0.03036400  0.31715700  0.29704600  1
  O  O58  1  0.14375700  0.08235700  0.09006600  1
  O  O59  1  0.34041700  0.56811400  0.64981100  1
  O  O60  1  0.96963600  0.68284300  0.70295400  1
  O  O61  1  0.84041700  0.43188600  0.64981100  1
  O  O62  1  0.36203700  0.95149500  0.10800400  1
  O  O63  1  0.37890600  0.56167100  0.15274700  1
  O  O64  1  0.15744200  0.83049500  0.68008700  1
  O  O65  1  0.15958300  0.56811400  0.35018900  1
  O  O66  1  0.64375700  0.08235700  0.40993400  1
  O  O67  1  0.86203700  0.95149500  0.39199600  1
  O  O68  1  0.85624300  0.91764300  0.90993400  1
  O  O69  1  0.12109400  0.56167100  0.84725300  1
  O  O70  1  0.53036400  0.68284300  0.29704600  1
  O  O71  1  0.46963600  0.68284300  0.79704600  1
  O  O72  1  0.63796300  0.95149500  0.60800400  1
  O  O73  1  0.35624300  0.91764300  0.59006600  1
  O  O74  1  0.15958300  0.43188600  0.14981100  1
  O  O75  1  0.63796300  0.04850500  0.89199600  1
  O  O76  1  0.14375700  0.91764300  0.40993400  1
  O  O77  1  0.84255800  0.16950500  0.31991300  1
  O  O78  1  0.79312000  0.00000000  0.75000000  1
  O  O79  1  0.20688000  0.00000000  0.25000000  1
  O  O80  1  0.25000000  0.53786000  0.00000000  1
  O  O81  1  0.65958300  0.43188600  0.35018900  1
  O  O82  1  0.34041700  0.43188600  0.85018900  1
  O  O83  1  0.86657500  0.64772700  0.06521300  1
  O  O84  1  0.87890600  0.56167100  0.34725300  1
  O  O85  1  0.63342500  0.35227300  0.56521300  1
  O  O86  1  0.62109400  0.43832900  0.84725300  1
  O  O87  1  0.53036400  0.31715700  0.20295400  1
  O  O88  1  0.36203700  0.04850500  0.39199600  1
  O  O89  1  0.97237500  0.17721300  0.94802500  1
  O  O90  1  0.87890600  0.43832900  0.15274700  1
  O  O91  1  0.96963600  0.31715700  0.79704600  1
  O  O92  1  0.25000000  0.46214000  0.50000000  1
  O  O93  1  0.37890600  0.43832900  0.34725300  1
  O  O94  1  0.64375700  0.91764300  0.09006600  1
  O  O95  1  0.70688000  0.00000000  0.25000000  1
  O  O96  1  0.63342500  0.64772700  0.93478700  1
  O  O97  1  0.03036400  0.68284300  0.20295400  1
  O  O98  1  0.75000000  0.53786000  0.50000000  1
  O  O99  1  0.29312000  0.00000000  0.75000000  1
  O  O100  1  0.35624300  0.08235700  0.90993400  1
  O  O101  1  0.02762500  0.17721300  0.44802500  1
  O  O102  1  0.65744200  0.16950500  0.68008700  1
  O  O103  1  0.36657500  0.64772700  0.43478700  1
  O  O104  1  0.65744200  0.83049500  0.81991300  1
  O  O105  1  0.12109400  0.43832900  0.65274700  1
  O  O106  1  0.75000000  0.46214000  0.00000000  1
  O  O107  1  0.15744200  0.16950500  0.81991300  1
  O  O108  1  0.46963600  0.31715700  0.70295400  1
  O  O109  1  0.62109400  0.56167100  0.65274700  1
  O  O110  1  0.52762500  0.17721300  0.05197500  1
  O  O111  1  0.47237500  0.82278700  0.94802500  1
