# generated using pymatgen
data_Gd3OsO7
_symmetry_space_group_name_H-M   'P 1'
_cell_length_a   7.45264500
_cell_length_b   10.69734100
_cell_length_c   14.98256600
_cell_angle_alpha   90.00000000
_cell_angle_beta   90.00000000
_cell_angle_gamma   90.00000000
_symmetry_Int_Tables_number   1
_chemical_formula_structural   Gd3OsO7
_chemical_formula_sum   'Gd24 Os8 O56'
_cell_volume   1194.46237452
_cell_formula_units_Z   8
loop_
 _symmetry_equiv_pos_site_id
 _symmetry_equiv_pos_as_xyz
  1  'x, y, z'
loop_
 _atom_site_type_symbol
 _atom_site_label
 _atom_site_symmetry_multiplicity
 _atom_site_fract_x
 _atom_site_fract_y
 _atom_site_fract_z
 _atom_site_occupancy
  Gd  Gd0  1  0.75032500  0.94356300  0.97519500  1
  Gd  Gd1  1  0.00380700  0.68903400  0.36128700  1
  Gd  Gd2  1  0.49619300  0.68903400  0.86128700  1
  Gd  Gd3  1  0.49594400  0.17056300  0.61067700  1
  Gd  Gd4  1  0.26036600  0.90235600  0.01708800  1
  Gd  Gd5  1  0.50405600  0.67056300  0.38932300  1
  Gd  Gd6  1  0.74533300  0.91572300  0.22538900  1
  Gd  Gd7  1  0.99594400  0.67056300  0.88932300  1
  Gd  Gd8  1  0.75575400  0.45683600  0.73258700  1
  Gd  Gd9  1  0.24533300  0.41572300  0.27461100  1
  Gd  Gd10  1  0.23963400  0.90235600  0.51708800  1
  Gd  Gd11  1  0.24424600  0.95683600  0.26741300  1
  Gd  Gd12  1  0.73963400  0.40235600  0.98291200  1
  Gd  Gd13  1  0.76036600  0.40235600  0.48291200  1
  Gd  Gd14  1  0.75466700  0.91572300  0.72538900  1
  Gd  Gd15  1  0.25575400  0.95683600  0.76741300  1
  Gd  Gd16  1  0.99619300  0.18903400  0.63871300  1
  Gd  Gd17  1  0.50380700  0.18903400  0.13871300  1
  Gd  Gd18  1  0.74424600  0.45683600  0.23258700  1
  Gd  Gd19  1  0.24967500  0.44356300  0.02480500  1
  Gd  Gd20  1  0.25032500  0.44356300  0.52480500  1
  Gd  Gd21  1  0.00405600  0.17056300  0.11067700  1
  Gd  Gd22  1  0.25466700  0.41572300  0.77461100  1
  Gd  Gd23  1  0.74967500  0.94356300  0.47519500  1
  Os  Os24  1  0.00190400  0.67854400  0.62629800  1
  Os  Os25  1  0.00172700  0.18012200  0.87520400  1
  Os  Os26  1  0.99827300  0.68012200  0.12479600  1
  Os  Os27  1  0.99809600  0.17854400  0.37370200  1
  Os  Os28  1  0.49809600  0.67854400  0.12629800  1
  Os  Os29  1  0.50172700  0.68012200  0.62479600  1
  Os  Os30  1  0.49827300  0.18012200  0.37520400  1
  Os  Os31  1  0.50190400  0.17854400  0.87370200  1
  O  O32  1  0.03595900  0.05096400  0.97004900  1
  O  O33  1  0.25099400  0.66775700  0.59119000  1
  O  O34  1  0.46757100  0.28083100  0.98648600  1
  O  O35  1  0.23948300  0.04859200  0.62795900  1
  O  O36  1  0.74819100  0.69030100  0.15914400  1
  O  O37  1  0.54531000  0.33077800  0.80862700  1
  O  O38  1  0.45469000  0.83077800  0.19137300  1
  O  O39  1  0.03128500  0.81117600  0.22083000  1
  O  O40  1  0.47087000  0.55661500  0.72309500  1
  O  O41  1  0.52913000  0.05661500  0.27690500  1
  O  O42  1  0.25180900  0.19030100  0.84085600  1
  O  O43  1  0.53344800  0.07438400  0.76144900  1
  O  O44  1  0.76429400  0.81384600  0.85633800  1
  O  O45  1  0.96871500  0.31117600  0.77917000  1
  O  O46  1  0.03975000  0.02222500  0.43774800  1
  O  O47  1  0.23370100  0.81083000  0.87813900  1
  O  O48  1  0.96655200  0.07438400  0.26144900  1
  O  O49  1  0.73370100  0.31083000  0.62186100  1
  O  O50  1  0.52893300  0.80616500  0.52786800  1
  O  O51  1  0.75180900  0.69030100  0.65914400  1
  O  O52  1  0.53595900  0.55096400  0.52995100  1
  O  O53  1  0.96757100  0.78083100  0.51351400  1
  O  O54  1  0.23315000  0.54479300  0.39431000  1
  O  O55  1  0.76051700  0.54859200  0.37204100  1
  O  O56  1  0.03344800  0.57438400  0.73855100  1
  O  O57  1  0.23570600  0.31384600  0.14366200  1
  O  O58  1  0.73315000  0.04479300  0.10569000  1
  O  O59  1  0.53975000  0.52222500  0.06225200  1
  O  O60  1  0.26685000  0.54479300  0.89431000  1
  O  O61  1  0.76629900  0.31083000  0.12186100  1
  O  O62  1  0.04531000  0.83077800  0.69137300  1
  O  O63  1  0.47106700  0.30616500  0.47213200  1
  O  O64  1  0.26429400  0.31384600  0.64366200  1
  O  O65  1  0.26629900  0.81083000  0.37813900  1
  O  O66  1  0.26051700  0.04859200  0.12795900  1
  O  O67  1  0.75099400  0.16775700  0.90881000  1
  O  O68  1  0.73570600  0.81384600  0.35633800  1
  O  O69  1  0.24900600  0.66775700  0.09119000  1
  O  O70  1  0.53242900  0.78083100  0.01351400  1
  O  O71  1  0.46025000  0.02222500  0.93774800  1
  O  O72  1  0.76685000  0.04479300  0.60569000  1
  O  O73  1  0.96025000  0.52222500  0.56225200  1
  O  O74  1  0.97087000  0.05661500  0.77690500  1
  O  O75  1  0.46404100  0.05096400  0.47004900  1
  O  O76  1  0.46655200  0.57438400  0.23855100  1
  O  O77  1  0.02893300  0.30616500  0.97213200  1
  O  O78  1  0.53128500  0.31117600  0.27917000  1
  O  O79  1  0.24819100  0.19030100  0.34085600  1
  O  O80  1  0.46871500  0.81117600  0.72083000  1
  O  O81  1  0.73948300  0.54859200  0.87204100  1
  O  O82  1  0.74900600  0.16775700  0.40881000  1
  O  O83  1  0.02913000  0.55661500  0.22309500  1
  O  O84  1  0.97106700  0.80616500  0.02786800  1
  O  O85  1  0.96404100  0.55096400  0.02995100  1
  O  O86  1  0.95469000  0.33077800  0.30862700  1
  O  O87  1  0.03242900  0.28083100  0.48648600  1
