# generated using pymatgen
data_RbNa5Be8O11
_symmetry_space_group_name_H-M   'P 1'
_cell_length_a   6.48690087
_cell_length_b   9.50995531
_cell_length_c   10.76093759
_cell_angle_alpha   64.45628978
_cell_angle_beta   89.11189906
_cell_angle_gamma   70.23980780
_symmetry_Int_Tables_number   1
_chemical_formula_structural   RbNa5Be8O11
_chemical_formula_sum   'Rb2 Na10 Be16 O22'
_cell_volume   557.01392150
_cell_formula_units_Z   2
loop_
 _symmetry_equiv_pos_site_id
 _symmetry_equiv_pos_as_xyz
  1  'x, y, z'
loop_
 _atom_site_type_symbol
 _atom_site_label
 _atom_site_symmetry_multiplicity
 _atom_site_fract_x
 _atom_site_fract_y
 _atom_site_fract_z
 _atom_site_occupancy
  Rb  Rb0  1  0.74989475  0.23612956  0.06068285  1
  Rb  Rb1  1  0.25010525  0.76387044  0.93931715  1
  Na  Na2  1  0.87283660  0.13944607  0.37294432  1
  Na  Na3  1  0.75351150  0.44679144  0.48349945  1
  Na  Na4  1  0.09298807  0.36283613  0.14277449  1
  Na  Na5  1  0.26387428  0.26006960  0.46063109  1
  Na  Na6  1  0.25143731  0.05448707  0.02425318  1
  Na  Na7  1  0.24648850  0.55320856  0.51650055  1
  Na  Na8  1  0.73612572  0.73993040  0.53936891  1
  Na  Na9  1  0.90701193  0.63716387  0.85722551  1
  Na  Na10  1  0.12716340  0.86055393  0.62705568  1
  Na  Na11  1  0.74856269  0.94551293  0.97574682  1
  Be  Be12  1  0.90883158  0.84302836  0.29855483  1
  Be  Be13  1  0.54970992  0.91299735  0.72478885  1
  Be  Be14  1  0.45029008  0.08700265  0.27521115  1
  Be  Be15  1  0.72589965  0.61290977  0.14920442  1
  Be  Be16  1  0.78038403  0.11042344  0.64637351  1
  Be  Be17  1  0.38338702  0.21540182  0.72814701  1
  Be  Be18  1  0.61661298  0.78459818  0.27185299  1
  Be  Be19  1  0.49580157  0.40822963  0.25089595  1
  Be  Be20  1  0.21961597  0.88957656  0.35362649  1
  Be  Be21  1  0.50419843  0.59177037  0.74910405  1
  Be  Be22  1  0.33531843  0.71807478  0.23945162  1
  Be  Be23  1  0.09116842  0.15697164  0.70144517  1
  Be  Be24  1  0.66468157  0.28192522  0.76054838  1
  Be  Be25  1  0.95854377  0.34329218  0.78577548  1
  Be  Be26  1  0.04145623  0.65670782  0.21422452  1
  Be  Be27  1  0.27410035  0.38709023  0.85079558  1
  O  O28  1  0.48123868  0.23113613  0.86188325  1
  O  O29  1  0.07372606  0.84713698  0.17800872  1
  O  O30  1  0.47222907  0.24167842  0.27903474  1
  O  O31  1  0.02011534  0.85060966  0.42674086  1
  O  O32  1  0.35791270  0.04061659  0.75440065  1
  O  O33  1  0.12264228  0.34247027  0.66676395  1
  O  O34  1  0.64208730  0.95938341  0.24559935  1
  O  O35  1  0.87735772  0.65752973  0.33323605  1
  O  O36  1  0.52777093  0.75832158  0.72096526  1
  O  O37  1  0.22032003  0.07017785  0.28719203  1
  O  O38  1  0.93259708  0.64523048  0.08584884  1
  O  O39  1  0.77967997  0.92982215  0.71280797  1
  O  O40  1  0.51876132  0.76886387  0.13811675  1
  O  O41  1  0.56384146  0.26578124  0.62589361  1
  O  O42  1  0.71256403  0.43659814  0.20707187  1
  O  O43  1  0.28743597  0.56340186  0.79292813  1
  O  O44  1  0.30539766  0.54097908  0.27555798  1
  O  O45  1  0.92627394  0.15286302  0.82199128  1
  O  O46  1  0.69460234  0.45902092  0.72444202  1
  O  O47  1  0.06740292  0.35476952  0.91415116  1
  O  O48  1  0.43615854  0.73421876  0.37410639  1
  O  O49  1  0.97988466  0.14939034  0.57325914  1
