# generated using pymatgen
data_Na3Mg3In(SO4)6
_symmetry_space_group_name_H-M   'P 1'
_cell_length_a   8.99925053
_cell_length_b   8.99651123
_cell_length_c   18.01403470
_cell_angle_alpha   58.47333920
_cell_angle_beta   58.44973843
_cell_angle_gamma   58.42587875
_symmetry_Int_Tables_number   1
_chemical_formula_structural   Na3Mg3In(SO4)6
_chemical_formula_sum   'Na6 Mg6 In2 S12 O48'
_cell_volume   994.69412864
_cell_formula_units_Z   2
loop_
 _symmetry_equiv_pos_site_id
 _symmetry_equiv_pos_as_xyz
  1  'x, y, z'
loop_
 _atom_site_type_symbol
 _atom_site_label
 _atom_site_symmetry_multiplicity
 _atom_site_fract_x
 _atom_site_fract_y
 _atom_site_fract_z
 _atom_site_occupancy
  In  In0  1  0.14800896  0.14606133  0.07545135  1
  In  In1  1  0.85004239  0.84964053  0.92602530  1
  Mg  Mg2  1  0.34956998  0.35011976  0.18045581  1
  Mg  Mg3  1  0.14598116  0.14120616  0.57415416  1
  Mg  Mg4  1  0.35713436  0.35223085  0.67541185  1
  Mg  Mg5  1  0.64900286  0.65654614  0.32438987  1
  Mg  Mg6  1  0.85659510  0.84751279  0.41885143  1
  Mg  Mg7  1  0.64605393  0.64711376  0.82557894  1
  Na  Na8  1  0.99966563  0.99791338  0.00084873  1
  Na  Na9  1  0.02033949  0.00362295  0.49208621  1
  Na  Na10  1  0.49647182  0.52369420  0.23749081  1
  Na  Na11  1  0.59468507  0.24124837  0.44177875  1
  Na  Na12  1  0.46956002  0.49994162  0.76139119  1
  Na  Na13  1  0.87445981  0.59803012  0.62049459  1
  O  O14  1  0.97035564  0.21544220  0.19846511  1
  O  O15  1  0.20741420  0.39854343  0.98525063  1
  O  O16  1  0.40084317  0.96814687  0.10450880  1
  O  O17  1  0.10708785  0.29124989  0.25601095  1
  O  O18  1  0.29312416  0.49756991  0.05724704  1
  O  O19  1  0.06177944  0.91027252  0.13628536  1
  O  O20  1  0.49898432  0.11148816  0.14816000  1
  O  O21  1  0.22590585  0.59028841  0.21281566  1
  O  O22  1  0.28097816  0.06789063  0.45604255  1
  O  O23  1  0.98956809  0.20972836  0.69379042  1
  O  O24  1  0.43201701  0.22697827  0.29475228  1
  O  O25  1  0.58740257  0.42483369  0.11150157  1
  O  O26  1  0.21848425  0.38219835  0.49569073  1
  O  O27  1  0.08228918  0.71608438  0.46882254  1
  O  O28  1  0.38875364  0.98833824  0.60471238  1
  O  O29  1  0.11289336  0.29234006  0.75431310  1
  O  O30  1  0.90999522  0.27495705  0.03036774  1
  O  O31  1  0.41234278  0.56838916  0.39058405  1
  O  O32  1  0.28637838  0.51636958  0.55659577  1
  O  O33  1  0.57496043  0.77588781  0.20640761  1
  O  O34  1  0.06437104  0.91073635  0.63735226  1
  O  O35  1  0.72449673  0.93949515  0.04520337  1
  O  O36  1  0.51302920  0.10923476  0.64511002  1
  O  O37  1  0.22169956  0.58714640  0.71351435  1
  O  O38  1  0.77018732  0.40895968  0.29146629  1
  O  O39  1  0.49963986  0.89294176  0.35362735  1
  O  O40  1  0.27396642  0.06032426  0.95494744  1
  O  O41  1  0.92863217  0.08735994  0.36323384  1
  O  O42  1  0.42580722  0.22470946  0.79483537  1
  O  O43  1  0.70424946  0.48573203  0.44738105  1
  O  O44  1  0.59040392  0.43093974  0.61270414  1
  O  O45  1  0.09017770  0.72338883  0.96943641  1
  O  O46  1  0.89410916  0.70072685  0.24513023  1
  O  O47  1  0.60883332  0.02521463  0.39682015  1
  O  O48  1  0.91328068  0.27684778  0.53326370  1
  O  O49  1  0.79467029  0.60750310  0.50647135  1
  O  O50  1  0.41241860  0.57123943  0.88944695  1
  O  O51  1  0.57179123  0.77324479  0.70494819  1
  O  O52  1  0.01737333  0.79671576  0.29990775  1
  O  O53  1  0.72122798  0.93055256  0.54404224  1
  O  O54  1  0.78167980  0.41285559  0.78137831  1
  O  O55  1  0.50027080  0.89008094  0.85138125  1
  O  O56  1  0.93726872  0.08874320  0.86072052  1
  O  O57  1  0.70659961  0.50076242  0.94377574  1
  O  O58  1  0.89077075  0.70364829  0.74009115  1
  O  O59  1  0.59701065  0.02902803  0.89813300  1
  O  O60  1  0.79086615  0.59854440  0.01686813  1
  O  O61  1  0.01376177  0.78682709  0.80211068  1
  S  S62  1  0.04764257  0.74627463  0.22610915  1
  S  S63  1  0.45579148  0.05162092  0.37482583  1
  S  S64  1  0.74523413  0.45164936  0.02461570  1
  S  S65  1  0.25030429  0.54552045  0.47800793  1
  S  S66  1  0.54763960  0.95147356  0.12780447  1
  S  S67  1  0.04603458  0.74672574  0.72278761  1
  S  S68  1  0.94918605  0.25197211  0.27608075  1
  S  S69  1  0.45151959  0.04877628  0.87307899  1
  S  S70  1  0.75004004  0.45069660  0.52435645  1
  S  S71  1  0.25398081  0.54518178  0.97704621  1
  S  S72  1  0.54317391  0.95280897  0.62635168  1
  S  S73  1  0.95873123  0.24991746  0.77140069  1
