# generated using pymatgen
data_DyMoO4F
_symmetry_space_group_name_H-M   'P 1'
_cell_length_a   12.44382900
_cell_length_b   5.27003100
_cell_length_c   6.73406170
_cell_angle_alpha   66.84522279
_cell_angle_beta   90.00000000
_cell_angle_gamma   90.00000000
_symmetry_Int_Tables_number   1
_chemical_formula_structural   DyMoO4F
_chemical_formula_sum   'Dy4 Mo4 O16 F4'
_cell_volume   406.04158726
_cell_formula_units_Z   4
loop_
 _symmetry_equiv_pos_site_id
 _symmetry_equiv_pos_as_xyz
  1  'x, y, z'
loop_
 _atom_site_type_symbol
 _atom_site_label
 _atom_site_symmetry_multiplicity
 _atom_site_fract_x
 _atom_site_fract_y
 _atom_site_fract_z
 _atom_site_occupancy
  Dy  Dy0  1  0.55129800  0.63890900  0.69988100  1
  Dy  Dy1  1  0.94870200  0.63890900  0.19988100  1
  Dy  Dy2  1  0.05129800  0.36109100  0.80011900  1
  Dy  Dy3  1  0.44870200  0.36109100  0.30011900  1
  Mo  Mo4  1  0.35667300  0.07889000  0.86963600  1
  Mo  Mo5  1  0.85667300  0.92111000  0.63036400  1
  Mo  Mo6  1  0.64332700  0.92111000  0.13036400  1
  Mo  Mo7  1  0.14332700  0.07889000  0.36963600  1
  O  O8  1  0.93113200  0.99633300  0.83761100  1
  O  O9  1  0.27738400  0.19308100  0.29474800  1
  O  O10  1  0.93479400  0.69108100  0.53827300  1
  O  O11  1  0.34708600  0.76174100  0.09285200  1
  O  O12  1  0.56886800  0.99633300  0.33761100  1
  O  O13  1  0.84708600  0.23825900  0.40714800  1
  O  O14  1  0.77738400  0.80691900  0.20525200  1
  O  O15  1  0.15291400  0.76174100  0.59285200  1
  O  O16  1  0.06886800  0.00366700  0.16238900  1
  O  O17  1  0.43113200  0.00366700  0.66238900  1
  O  O18  1  0.22261600  0.19308100  0.79474800  1
  O  O19  1  0.43479400  0.30891900  0.96172700  1
  O  O20  1  0.06520600  0.30891900  0.46172700  1
  O  O21  1  0.56520600  0.69108100  0.03827300  1
  O  O22  1  0.72261600  0.80691900  0.70525200  1
  O  O23  1  0.65291400  0.23825900  0.90714800  1
  F  F24  1  0.09760800  0.54512600  0.03599500  1
  F  F25  1  0.59760800  0.45487400  0.46400500  1
  F  F26  1  0.40239200  0.54512600  0.53599500  1
  F  F27  1  0.90239200  0.45487400  0.96400500  1
