# generated using pymatgen
data_Cs7Cd3Br13
_symmetry_space_group_name_H-M   'P 1'
_cell_length_a   14.26611166
_cell_length_b   14.26611166
_cell_length_c   14.26611166
_cell_angle_alpha   99.20112731
_cell_angle_beta   99.20112731
_cell_angle_gamma   132.85917839
_symmetry_Int_Tables_number   1
_chemical_formula_structural   Cs7Cd3Br13
_chemical_formula_sum   'Cs14 Cd6 Br26'
_cell_volume   1950.75434061
_cell_formula_units_Z   2
loop_
 _symmetry_equiv_pos_site_id
 _symmetry_equiv_pos_as_xyz
  1  'x, y, z'
loop_
 _atom_site_type_symbol
 _atom_site_label
 _atom_site_symmetry_multiplicity
 _atom_site_fract_x
 _atom_site_fract_y
 _atom_site_fract_z
 _atom_site_occupancy
  Cs  Cs0  1  0.75000000  0.94985600  0.19985600  1
  Cs  Cs1  1  0.78960600  0.71039400  0.50000000  1
  Cs  Cs2  1  0.05014400  0.25000000  0.80014400  1
  Cs  Cs3  1  0.25000000  0.05014400  0.80014400  1
  Cs  Cs4  1  0.71039400  0.21039400  0.92078900  1
  Cs  Cs5  1  0.94985600  0.75000000  0.19985600  1
  Cs  Cs6  1  0.44985600  0.25000000  0.19985600  1
  Cs  Cs7  1  0.25000000  0.44985600  0.19985600  1
  Cs  Cs8  1  0.28960600  0.78960600  0.07921100  1
  Cs  Cs9  1  0.55014400  0.75000000  0.80014400  1
  Cs  Cs10  1  0.75000000  0.25000000  0.50000000  1
  Cs  Cs11  1  0.75000000  0.55014400  0.80014400  1
  Cs  Cs12  1  0.21039400  0.28960600  0.50000000  1
  Cs  Cs13  1  0.25000000  0.75000000  0.50000000  1
  Cd  Cd14  1  0.12711100  0.62711100  0.75422200  1
  Cd  Cd15  1  0.37288900  0.12711100  0.50000000  1
  Cd  Cd16  1  0.87288900  0.37288900  0.24577800  1
  Cd  Cd17  1  0.50000000  0.50000000  0.00000000  1
  Cd  Cd18  1  0.62711100  0.87288900  0.50000000  1
  Cd  Cd19  1  0.00000000  0.00000000  0.00000000  1
  Br  Br20  1  0.65632400  0.01153900  0.66786300  1
  Br  Br21  1  0.10977500  0.89197700  0.00175200  1
  Br  Br22  1  0.47757400  0.62499600  0.50000000  1
  Br  Br23  1  0.02242600  0.52242600  0.14742300  1
  Br  Br24  1  0.51153900  0.15632400  0.66786300  1
  Br  Br25  1  0.34367600  0.98846100  0.33213700  1
  Br  Br26  1  0.37500400  0.87500400  0.85257700  1
  Br  Br27  1  0.89197700  0.89022500  0.78220100  1
  Br  Br28  1  0.84367600  0.51153900  0.35521500  1
  Br  Br29  1  0.60802300  0.39022500  0.99824800  1
  Br  Br30  1  0.39022500  0.39197700  0.78220100  1
  Br  Br31  1  0.39197700  0.60977500  0.00175200  1
  Br  Br32  1  0.52242600  0.37500400  0.50000000  1
  Br  Br33  1  0.62499600  0.12499600  0.14742300  1
  Br  Br34  1  0.98846100  0.65632400  0.64478500  1
  Br  Br35  1  0.48846100  0.84367600  0.33213700  1
  Br  Br36  1  0.01153900  0.34367600  0.35521500  1
  Br  Br37  1  0.75000000  0.75000000  0.00000000  1
  Br  Br38  1  0.25000000  0.25000000  0.00000000  1
  Br  Br39  1  0.97757400  0.47757400  0.85257700  1
  Br  Br40  1  0.87500400  0.02242600  0.50000000  1
  Br  Br41  1  0.89022500  0.10802300  0.99824800  1
  Br  Br42  1  0.10802300  0.10977500  0.21779900  1
  Br  Br43  1  0.60977500  0.60802300  0.21779900  1
  Br  Br44  1  0.15632400  0.48846100  0.64478500  1
  Br  Br45  1  0.12499600  0.97757400  0.50000000  1
