# generated using pymatgen
data_Y6Te2Pd
_symmetry_space_group_name_H-M   'P 1'
_cell_length_a   4.03025600
_cell_length_b   11.53454500
_cell_length_c   22.00054400
_cell_angle_alpha   90.00000000
_cell_angle_beta   90.00000000
_cell_angle_gamma   90.00000000
_symmetry_Int_Tables_number   1
_chemical_formula_structural   Y6Te2Pd
_chemical_formula_sum   'Y24 Te8 Pd4'
_cell_volume   1022.74301128
_cell_formula_units_Z   4
loop_
 _symmetry_equiv_pos_site_id
 _symmetry_equiv_pos_as_xyz
  1  'x, y, z'
loop_
 _atom_site_type_symbol
 _atom_site_label
 _atom_site_symmetry_multiplicity
 _atom_site_fract_x
 _atom_site_fract_y
 _atom_site_fract_z
 _atom_site_occupancy
  Y  Y0  1  0.75000000  0.57566300  0.85445400  1
  Y  Y1  1  0.25000000  0.17416300  0.39143700  1
  Y  Y2  1  0.25000000  0.88581900  0.48757500  1
  Y  Y3  1  0.75000000  0.82583700  0.60856300  1
  Y  Y4  1  0.75000000  0.87944000  0.97473200  1
  Y  Y5  1  0.75000000  0.62056000  0.47473200  1
  Y  Y6  1  0.75000000  0.38581900  0.01242500  1
  Y  Y7  1  0.25000000  0.42433700  0.14554600  1
  Y  Y8  1  0.25000000  0.07566300  0.64554600  1
  Y  Y9  1  0.25000000  0.74607800  0.23390100  1
  Y  Y10  1  0.25000000  0.04103100  0.84597500  1
  Y  Y11  1  0.25000000  0.75392200  0.73390100  1
  Y  Y12  1  0.75000000  0.25392200  0.76609900  1
  Y  Y13  1  0.75000000  0.67416300  0.10856300  1
  Y  Y14  1  0.25000000  0.12056000  0.02526800  1
  Y  Y15  1  0.75000000  0.24607800  0.26609900  1
  Y  Y16  1  0.75000000  0.54103100  0.65402500  1
  Y  Y17  1  0.25000000  0.45896900  0.34597500  1
  Y  Y18  1  0.75000000  0.95896900  0.15402500  1
  Y  Y19  1  0.75000000  0.11418100  0.51242500  1
  Y  Y20  1  0.25000000  0.32583700  0.89143700  1
  Y  Y21  1  0.75000000  0.92433700  0.35445400  1
  Y  Y22  1  0.25000000  0.61418100  0.98757500  1
  Y  Y23  1  0.25000000  0.37944000  0.52526800  1
  Te  Te24  1  0.75000000  0.96936200  0.73904600  1
  Te  Te25  1  0.75000000  0.27832200  0.62652800  1
  Te  Te26  1  0.25000000  0.77832200  0.87347200  1
  Te  Te27  1  0.25000000  0.03063800  0.26095400  1
  Te  Te28  1  0.25000000  0.72167800  0.37347200  1
  Te  Te29  1  0.25000000  0.46936200  0.76095400  1
  Te  Te30  1  0.75000000  0.22167800  0.12652800  1
  Te  Te31  1  0.75000000  0.53063800  0.23904600  1
  Pd  Pd32  1  0.75000000  0.14580600  0.92659700  1
  Pd  Pd33  1  0.25000000  0.85419400  0.07340300  1
  Pd  Pd34  1  0.25000000  0.64580600  0.57340300  1
  Pd  Pd35  1  0.75000000  0.35419400  0.42659700  1
