# generated using pymatgen
data_La10(ErS3)9
_symmetry_space_group_name_H-M   'P 1'
_cell_length_a   3.94341058
_cell_length_b   15.00534715
_cell_length_c   18.87704684
_cell_angle_alpha   79.25266239
_cell_angle_beta   83.98889742
_cell_angle_gamma   82.45325677
_symmetry_Int_Tables_number   1
_chemical_formula_structural   La10(ErS3)9
_chemical_formula_sum   'La10 Er9 S27'
_cell_volume   1084.20097508
_cell_formula_units_Z   1
loop_
 _symmetry_equiv_pos_site_id
 _symmetry_equiv_pos_as_xyz
  1  'x, y, z'
loop_
 _atom_site_type_symbol
 _atom_site_label
 _atom_site_symmetry_multiplicity
 _atom_site_fract_x
 _atom_site_fract_y
 _atom_site_fract_z
 _atom_site_occupancy
  La  La0  1  0.12745206  0.95362099  0.79101734  1
  La  La1  1  0.03964207  0.60724436  0.30705635  1
  La  La2  1  0.11576694  0.15868510  0.60825226  1
  La  La3  1  0.95788082  0.39282885  0.69316254  1
  La  La4  1  0.86926741  0.04588542  0.20987957  1
  La  La5  1  0.81949741  0.46436621  0.89719547  1
  La  La6  1  0.79671523  0.67780798  0.72064301  1
  La  La7  1  0.87680155  0.84067664  0.39224478  1
  La  La8  1  0.19843794  0.32079129  0.28004660  1
  La  La9  1  0.18095162  0.53442282  0.10323010  1
  Er  Er10  1  0.17851376  0.71621301  0.92395997  1
  Er  Er11  1  0.82153548  0.28343271  0.07657608  1
  Er  Er12  1  0.57144600  0.38035959  0.47133826  1
  Er  Er13  1  0.99926610  0.00082411  0.00013388  1
  Er  Er14  1  0.74645720  0.90731399  0.58767918  1
  Er  Er15  1  0.24199465  0.09120935  0.41310334  1
  Er  Er16  1  0.42380178  0.61792645  0.52852245  1
  Er  Er17  1  0.53137175  0.80602303  0.14075806  1
  Er  Er18  1  0.47143933  0.19398679  0.85969495  1
  S  S19  1  0.67674575  0.80329053  0.84078237  1
  S  S20  1  0.32230433  0.19574502  0.15932379  1
  S  S21  1  0.29464026  0.91242354  0.48549780  1
  S  S22  1  0.60587329  0.45461527  0.33226841  1
  S  S23  1  0.45358296  0.99331453  0.10178366  1
  S  S24  1  0.45338243  0.69709409  0.38591396  1
  S  S25  1  0.24137387  0.82696124  0.68028823  1
  S  S26  1  0.54239127  0.30231508  0.61462406  1
  S  S27  1  0.85642448  0.72758460  0.55277825  1
  S  S28  1  0.74999783  0.17152344  0.32025806  1
  S  S29  1  0.59528369  0.62436792  0.18588284  1
  S  S30  1  0.13886533  0.27116974  0.44612726  1
  S  S31  1  0.08136901  0.81278111  0.03684594  1
  S  S32  1  0.54595790  0.00673922  0.89903510  1
  S  S33  1  0.71531622  0.39970132  0.16915962  1
  S  S34  1  0.39271702  0.54528982  0.66799839  1
  S  S35  1  0.28215384  0.60013061  0.83131034  1
  S  S36  1  0.69430681  0.08635445  0.51557015  1
  S  S37  1  0.30043861  0.39307535  0.00768875  1
  S  S38  1  0.92261615  0.18858482  0.96309556  1
  S  S39  1  0.70061133  0.60526642  0.99223900  1
  S  S40  1  0.02521814  0.18159919  0.76557085  1
  S  S41  1  0.64329032  0.02582489  0.68522829  1
  S  S42  1  0.40658712  0.37561260  0.81399652  1
  S  S43  1  0.99742706  0.49870231  0.50050060  1
  S  S44  1  0.97656599  0.81575302  0.23577276  1
  S  S45  1  0.35089688  0.97317816  0.31515928  1
