# generated using pymatgen
data_NaNb3O8
_symmetry_space_group_name_H-M   'P 1'
_cell_length_a   3.82816500
_cell_length_b   8.93745800
_cell_length_c   10.32927400
_cell_angle_alpha   90.00000000
_cell_angle_beta   90.00000000
_cell_angle_gamma   90.00000000
_symmetry_Int_Tables_number   1
_chemical_formula_structural   NaNb3O8
_chemical_formula_sum   'Na2 Nb6 O16'
_cell_volume   353.40644072
_cell_formula_units_Z   2
loop_
 _symmetry_equiv_pos_site_id
 _symmetry_equiv_pos_as_xyz
  1  'x, y, z'
loop_
 _atom_site_type_symbol
 _atom_site_label
 _atom_site_symmetry_multiplicity
 _atom_site_fract_x
 _atom_site_fract_y
 _atom_site_fract_z
 _atom_site_occupancy
  Na  Na0  1  0.50000000  0.00000000  0.92617200  1
  Na  Na1  1  0.00000000  0.50000000  0.07382800  1
  Nb  Nb2  1  0.00000000  0.00000000  0.48363000  1
  Nb  Nb3  1  0.50000000  0.50000000  0.51637000  1
  Nb  Nb4  1  0.50000000  0.80734400  0.24571900  1
  Nb  Nb5  1  0.00000000  0.30734400  0.75428100  1
  Nb  Nb6  1  0.00000000  0.69265600  0.75428100  1
  Nb  Nb7  1  0.50000000  0.19265600  0.24571900  1
  O  O8  1  0.50000000  0.67140500  0.12004300  1
  O  O9  1  0.00000000  0.15714800  0.59747600  1
  O  O10  1  0.50000000  0.33995000  0.70051600  1
  O  O11  1  0.00000000  0.84285200  0.59747600  1
  O  O12  1  0.00000000  0.50000000  0.57623800  1
  O  O13  1  0.00000000  0.50000000  0.84977300  1
  O  O14  1  0.50000000  0.65714800  0.40252400  1
  O  O15  1  0.50000000  0.32859500  0.12004300  1
  O  O16  1  0.50000000  0.34285200  0.40252400  1
  O  O17  1  0.50000000  0.00000000  0.15022700  1
  O  O18  1  0.50000000  0.00000000  0.42376200  1
  O  O19  1  0.00000000  0.17140500  0.87995700  1
  O  O20  1  0.50000000  0.66005000  0.70051600  1
  O  O21  1  0.00000000  0.83995000  0.29948400  1
  O  O22  1  0.00000000  0.82859500  0.87995700  1
  O  O23  1  0.00000000  0.16005000  0.29948400  1
