# generated using pymatgen
data_Ho4Zr3O12
_symmetry_space_group_name_H-M   'P 1'
_cell_length_a   6.40528100
_cell_length_b   6.45775794
_cell_length_c   12.87438053
_cell_angle_alpha   99.13771935
_cell_angle_beta   99.41934081
_cell_angle_gamma   99.29776712
_symmetry_Int_Tables_number   1
_chemical_formula_structural   Ho4Zr3O12
_chemical_formula_sum   'Ho8 Zr6 O24'
_cell_volume   508.97817391
_cell_formula_units_Z   2
loop_
 _symmetry_equiv_pos_site_id
 _symmetry_equiv_pos_as_xyz
  1  'x, y, z'
loop_
 _atom_site_type_symbol
 _atom_site_label
 _atom_site_symmetry_multiplicity
 _atom_site_fract_x
 _atom_site_fract_y
 _atom_site_fract_z
 _atom_site_occupancy
  Ho  Ho0  1  0.38948800  0.86333700  0.09667600  1
  Ho  Ho1  1  0.31158100  0.60950300  0.81909200  1
  Ho  Ho2  1  0.29930100  0.61016800  0.31907300  1
  Ho  Ho3  1  0.85973100  0.69215800  0.44674000  1
  Ho  Ho4  1  0.68841900  0.39049700  0.18090800  1
  Ho  Ho5  1  0.14026900  0.30784200  0.55326000  1
  Ho  Ho6  1  0.61051200  0.13666300  0.90332400  1
  Ho  Ho7  1  0.70069900  0.38983200  0.68092700  1
  Zr  Zr8  1  0.99209400  0.99340600  0.24716800  1
  Zr  Zr9  1  0.39157800  0.85594200  0.59300000  1
  Zr  Zr10  1  0.00790600  0.00659400  0.75283200  1
  Zr  Zr11  1  0.85502400  0.67684100  0.94622400  1
  Zr  Zr12  1  0.14497600  0.32315900  0.05377600  1
  Zr  Zr13  1  0.60842200  0.14405800  0.40700000  1
  O  O14  1  0.32030500  0.94394900  0.78850100  1
  O  O15  1  0.03678800  0.89402500  0.08902400  1
  O  O16  1  0.31771100  0.96103400  0.29707000  1
  O  O17  1  0.07559900  0.92031700  0.59429700  1
  O  O18  1  0.58928200  0.81854800  0.96329000  1
  O  O19  1  0.92303900  0.69284700  0.79143700  1
  O  O20  1  0.17380800  0.57508300  0.96561600  1
  O  O21  1  0.56800100  0.82980400  0.46334700  1
  O  O22  1  0.40730000  0.56632000  0.15805000  1
  O  O23  1  0.92323400  0.68164400  0.27792300  1
  O  O24  1  0.18517100  0.59230800  0.46921100  1
  O  O25  1  0.59270000  0.43368000  0.84195000  1
  O  O26  1  0.42623400  0.58353900  0.65858500  1
  O  O27  1  0.82619200  0.42491700  0.03438400  1
  O  O28  1  0.07696100  0.30715300  0.20856300  1
  O  O29  1  0.57376600  0.41646100  0.34141500  1
  O  O30  1  0.41071800  0.18145200  0.03671000  1
  O  O31  1  0.81482900  0.40769200  0.53078900  1
  O  O32  1  0.07676600  0.31835600  0.72207700  1
  O  O33  1  0.43199900  0.17019600  0.53665300  1
  O  O34  1  0.96321200  0.10597500  0.91097600  1
  O  O35  1  0.67969500  0.05605100  0.21149900  1
  O  O36  1  0.92440100  0.07968300  0.40570300  1
  O  O37  1  0.68228900  0.03896600  0.70293000  1
