# generated using pymatgen
data_Li2H2Pt
_symmetry_space_group_name_H-M   'P 1'
_cell_length_a   5.52398828
_cell_length_b   5.52398828
_cell_length_c   5.52398828
_cell_angle_alpha   148.29016182
_cell_angle_beta   144.94429808
_cell_angle_gamma   47.98578911
_symmetry_Int_Tables_number   1
_chemical_formula_structural   Li2H2Pt
_chemical_formula_sum   'Li2 H2 Pt1'
_cell_volume   50.68362964
_cell_formula_units_Z   1
loop_
 _symmetry_equiv_pos_site_id
 _symmetry_equiv_pos_as_xyz
  1  'x, y, z'
loop_
 _atom_site_type_symbol
 _atom_site_label
 _atom_site_symmetry_multiplicity
 _atom_site_fract_x
 _atom_site_fract_y
 _atom_site_fract_z
 _atom_site_occupancy
  Li  Li0  1  0.63932500  0.63932500  0.00000000  1
  Li  Li1  1  0.36067500  0.36067500  0.00000000  1
  H  H2  1  0.83466000  0.83466000  0.00000000  1
  H  H3  1  0.16534000  0.16534000  0.00000000  1
  Pt  Pt4  1  0.00000000  0.00000000  0.00000000  1
