# generated using pymatgen
data_Mg4Zn7
_symmetry_space_group_name_H-M   'P 1'
_cell_length_a   5.28678052
_cell_length_b   13.15152590
_cell_length_c   14.14062727
_cell_angle_alpha   102.30688481
_cell_angle_beta   90.02732645
_cell_angle_gamma   101.59502986
_symmetry_Int_Tables_number   1
_chemical_formula_structural   Mg4Zn7
_chemical_formula_sum   'Mg20 Zn35'
_cell_volume   940.02583052
_cell_formula_units_Z   5
loop_
 _symmetry_equiv_pos_site_id
 _symmetry_equiv_pos_as_xyz
  1  'x, y, z'
loop_
 _atom_site_type_symbol
 _atom_site_label
 _atom_site_symmetry_multiplicity
 _atom_site_fract_x
 _atom_site_fract_y
 _atom_site_fract_z
 _atom_site_occupancy
  Mg  Mg0  1  0.87447910  0.74810880  0.89900873  1
  Mg  Mg1  1  0.03155815  0.07147703  0.71421820  1
  Mg  Mg2  1  0.30256786  0.61011172  0.35176145  1
  Mg  Mg3  1  0.44015047  0.88392104  0.95243749  1
  Mg  Mg4  1  0.48096355  0.96748375  0.60215597  1
  Mg  Mg5  1  0.78706514  0.57154142  0.02571887  1
  Mg  Mg6  1  0.35757788  0.71731053  0.57387361  1
  Mg  Mg7  1  0.55662400  0.11579902  0.04506762  1
  Mg  Mg8  1  0.82238557  0.64536579  0.67626990  1
  Mg  Mg9  1  0.51824629  0.03485505  0.39746815  1
  Mg  Mg10  1  0.69285164  0.39156882  0.64871317  1
  Mg  Mg11  1  0.17642925  0.35813579  0.32518231  1
  Mg  Mg12  1  0.00462041  0.01428611  0.90420968  1
  Mg  Mg13  1  0.83547426  0.67670781  0.25288760  1
  Mg  Mg14  1  0.15928826  0.32356052  0.74752162  1
  Mg  Mg15  1  0.64332241  0.28478818  0.42551204  1
  Mg  Mg16  1  0.12329099  0.25165844  0.10392711  1
  Mg  Mg17  1  0.21486862  0.42848218  0.97592576  1
  Mg  Mg18  1  0.96775480  0.93037303  0.28507549  1
  Mg  Mg19  1  0.99061989  0.98687207  0.09455663  1
  Zn  Zn20  1  0.92097243  0.84527628  0.59317247  1
  Zn  Zn21  1  0.51721202  0.03755179  0.82129589  1
  Zn  Zn22  1  0.26193921  0.51778018  0.66220792  1
  Zn  Zn23  1  0.82248890  0.13790540  0.24542941  1
  Zn  Zn24  1  0.34205356  0.17485740  0.57214671  1
  Zn  Zn25  1  0.68264372  0.86158270  0.75397439  1
  Zn  Zn26  1  0.49808054  0.49879834  0.49958535  1
  Zn  Zn27  1  0.08024760  0.15654785  0.40633653  1
  Zn  Zn28  1  0.68866631  0.37759498  0.86007056  1
  Zn  Zn29  1  0.16687585  0.82546771  0.42696926  1
  Zn  Zn30  1  0.52290468  0.53614199  0.82597245  1
  Zn  Zn31  1  0.33047425  0.66142440  0.96444581  1
  Zn  Zn32  1  0.83014356  0.66361919  0.46713145  1
  Zn  Zn33  1  0.40453843  0.80453332  0.26827393  1
  Zn  Zn34  1  0.47870323  0.96368852  0.17748434  1
  Zn  Zn35  1  0.30908537  0.62339594  0.13964337  1
  Zn  Zn36  1  0.12942484  0.78738589  0.10211729  1
  Zn  Zn37  1  0.83054070  0.17410349  0.57125414  1
  Zn  Zn38  1  0.31884461  0.13909057  0.24668048  1
  Zn  Zn39  1  0.16483414  0.33671613  0.53391660  1
  Zn  Zn40  1  0.86877698  0.21539534  0.89836370  1
  Zn  Zn41  1  0.65637322  0.82523207  0.42805557  1
  Zn  Zn42  1  0.99911826  0.50136837  0.50113119  1
  Zn  Zn43  1  0.35057411  0.70084564  0.78683693  1
  Zn  Zn44  1  0.01360372  0.53597090  0.82383934  1
  Zn  Zn45  1  0.65350863  0.78723909  0.10302467  1
  Zn  Zn46  1  0.65045952  0.29979066  0.21387217  1
  Zn  Zn47  1  0.34411898  0.21369827  0.89903209  1
  Zn  Zn48  1  0.59656788  0.19685644  0.73169709  1
  Zn  Zn49  1  0.98273376  0.46564869  0.17555973  1
  Zn  Zn50  1  0.17831995  0.86220213  0.75333824  1
  Zn  Zn51  1  0.99988784  0.00006117  0.49874979  1
  Zn  Zn52  1  0.47158174  0.46399254  0.17595241  1
  Zn  Zn53  1  0.66644013  0.34021076  0.03645666  1
  Zn  Zn54  1  0.73780880  0.48341375  0.33820866  1
