# generated using pymatgen
data_Ce2USe4
_symmetry_space_group_name_H-M   'P 1'
_cell_length_a   7.67266500
_cell_length_b   7.67266500
_cell_length_c   7.67266500
_cell_angle_alpha   109.34640913
_cell_angle_beta   109.34640913
_cell_angle_gamma   109.72113305
_symmetry_Int_Tables_number   1
_chemical_formula_structural   Ce2USe4
_chemical_formula_sum   'Ce4 U2 Se8'
_cell_volume   347.70474600
_cell_formula_units_Z   2
loop_
 _symmetry_equiv_pos_site_id
 _symmetry_equiv_pos_as_xyz
  1  'x, y, z'
loop_
 _atom_site_type_symbol
 _atom_site_label
 _atom_site_symmetry_multiplicity
 _atom_site_fract_x
 _atom_site_fract_y
 _atom_site_fract_z
 _atom_site_occupancy
  Ce  Ce0  1  0.62500000  0.00099900  0.87599900  1
  Ce  Ce1  1  0.99900100  0.87500000  0.62400100  1
  Ce  Ce2  1  0.12500000  0.74900100  0.12400100  1
  Ce  Ce3  1  0.25099900  0.37500000  0.37599900  1
  U  U4  1  0.50000000  0.50000000  0.00000000  1
  U  U5  1  0.75000000  0.25000000  0.50000000  1
  Se  Se6  1  0.52849700  0.77851000  0.39900400  1
  Se  Se7  1  0.87049400  0.97149000  0.24998700  1
  Se  Se8  1  0.72150300  0.62050700  0.75001300  1
  Se  Se9  1  0.02851000  0.27849700  0.89900400  1
  Se  Se10  1  0.87050700  0.47150300  0.25001300  1
  Se  Se11  1  0.37949300  0.12950600  0.10099600  1
  Se  Se12  1  0.22149000  0.62049400  0.74998700  1
  Se  Se13  1  0.37950600  0.12949300  0.60099600  1
