# generated using pymatgen
data_MnTl2GeTe4
_symmetry_space_group_name_H-M   'P 1'
_cell_length_a   7.02264963
_cell_length_b   7.02264963
_cell_length_c   7.02264963
_cell_angle_alpha   104.30758914
_cell_angle_beta   104.30758914
_cell_angle_gamma   120.38083796
_symmetry_Int_Tables_number   1
_chemical_formula_structural   MnTl2GeTe4
_chemical_formula_sum   'Mn1 Tl2 Ge1 Te4'
_cell_volume   259.24771124
_cell_formula_units_Z   1
loop_
 _symmetry_equiv_pos_site_id
 _symmetry_equiv_pos_as_xyz
  1  'x, y, z'
loop_
 _atom_site_type_symbol
 _atom_site_label
 _atom_site_symmetry_multiplicity
 _atom_site_fract_x
 _atom_site_fract_y
 _atom_site_fract_z
 _atom_site_occupancy
  Mn  Mn0  1  0.50000000  0.50000000  0.00000000  1
  Tl  Tl1  1  0.00000000  0.50000000  0.50000000  1
  Tl  Tl2  1  0.50000000  0.00000000  0.50000000  1
  Ge  Ge3  1  0.00000000  0.00000000  0.00000000  1
  Te  Te4  1  0.93314900  0.93314900  0.33989900  1
  Te  Te5  1  0.59325100  0.59325100  0.66010100  1
  Te  Te6  1  0.06685100  0.40674900  0.00000000  1
  Te  Te7  1  0.40674900  0.06685100  0.00000000  1
