# generated using pymatgen
data_CaH2(SO4)2
_symmetry_space_group_name_H-M   'P 1'
_cell_length_a   6.99836900
_cell_length_b   12.80576700
_cell_length_c   14.24909800
_cell_angle_alpha   90.00000000
_cell_angle_beta   90.00000000
_cell_angle_gamma   90.00000000
_symmetry_Int_Tables_number   1
_chemical_formula_structural   CaH2(SO4)2
_chemical_formula_sum   'Ca8 H16 S16 O64'
_cell_volume   1276.99679304
_cell_formula_units_Z   8
loop_
 _symmetry_equiv_pos_site_id
 _symmetry_equiv_pos_as_xyz
  1  'x, y, z'
loop_
 _atom_site_type_symbol
 _atom_site_label
 _atom_site_symmetry_multiplicity
 _atom_site_fract_x
 _atom_site_fract_y
 _atom_site_fract_z
 _atom_site_occupancy
  Ca  Ca0  1  0.65174300  0.43659600  0.31220800  1
  Ca  Ca1  1  0.84825700  0.93659600  0.68779200  1
  Ca  Ca2  1  0.15174300  0.56340400  0.18779200  1
  Ca  Ca3  1  0.34825700  0.06340400  0.81220800  1
  Ca  Ca4  1  0.34825700  0.56340400  0.68779200  1
  Ca  Ca5  1  0.15174300  0.06340400  0.31220800  1
  Ca  Ca6  1  0.84825700  0.43659600  0.81220800  1
  Ca  Ca7  1  0.65174300  0.93659600  0.18779200  1
  H  H8  1  0.67122300  0.17232100  0.47657700  1
  H  H9  1  0.82877700  0.67232100  0.52342300  1
  H  H10  1  0.17122300  0.82767900  0.02342300  1
  H  H11  1  0.32877700  0.32767900  0.97657700  1
  H  H12  1  0.32877700  0.82767900  0.52342300  1
  H  H13  1  0.17122300  0.32767900  0.47657700  1
  H  H14  1  0.82877700  0.17232100  0.97657700  1
  H  H15  1  0.67122300  0.67232100  0.02342300  1
  H  H16  1  0.58140100  0.32244100  0.11867400  1
  H  H17  1  0.91859900  0.82244100  0.88132600  1
  H  H18  1  0.08140100  0.67755900  0.38132600  1
  H  H19  1  0.41859900  0.17755900  0.61867400  1
  H  H20  1  0.41859900  0.67755900  0.88132600  1
  H  H21  1  0.08140100  0.17755900  0.11867400  1
  H  H22  1  0.91859900  0.32244100  0.61867400  1
  H  H23  1  0.58140100  0.82244100  0.38132600  1
  S  S24  1  0.66216400  0.14001400  0.32606800  1
  S  S25  1  0.83783600  0.64001400  0.67393200  1
  S  S26  1  0.16216400  0.85998600  0.17393200  1
  S  S27  1  0.33783600  0.35998600  0.82606800  1
  S  S28  1  0.33783600  0.85998600  0.67393200  1
  S  S29  1  0.16216400  0.35998600  0.32606800  1
  S  S30  1  0.83783600  0.14001400  0.82606800  1
  S  S31  1  0.66216400  0.64001400  0.17393200  1
  S  S32  1  0.86457600  0.35644300  0.06534100  1
  S  S33  1  0.63542400  0.85644300  0.93465900  1
  S  S34  1  0.36457600  0.64355700  0.43465900  1
  S  S35  1  0.13542400  0.14355700  0.56534100  1
  S  S36  1  0.13542400  0.64355700  0.93465900  1
  S  S37  1  0.36457600  0.14355700  0.06534100  1
  S  S38  1  0.63542400  0.35644300  0.56534100  1
  S  S39  1  0.86457600  0.85644300  0.43465900  1
  O  O40  1  0.62900400  0.25018300  0.30888600  1
  O  O41  1  0.87099600  0.75018300  0.69111400  1
  O  O42  1  0.12900400  0.74981700  0.19111400  1
  O  O43  1  0.37099600  0.24981700  0.80888600  1
  O  O44  1  0.37099600  0.74981700  0.69111400  1
  O  O45  1  0.12900400  0.24981700  0.30888600  1
  O  O46  1  0.87099600  0.25018300  0.80888600  1
  O  O47  1  0.62900400  0.75018300  0.19111400  1
  O  O48  1  0.98882500  0.42399700  0.31562800  1
  O  O49  1  0.51117500  0.92399700  0.68437200  1
  O  O50  1  0.48882500  0.57600300  0.18437200  1
  O  O51  1  0.01117500  0.07600300  0.81562800  1
  O  O52  1  0.01117500  0.57600300  0.68437200  1
  O  O53  1  0.48882500  0.07600300  0.31562800  1
  O  O54  1  0.51117500  0.42399700  0.81562800  1
  O  O55  1  0.98882500  0.92399700  0.18437200  1
  O  O56  1  0.81503500  0.09257400  0.26811300  1
  O  O57  1  0.68496500  0.59257400  0.73188700  1
  O  O58  1  0.31503500  0.90742600  0.23188700  1
  O  O59  1  0.18496500  0.40742600  0.76811300  1
  O  O60  1  0.18496500  0.90742600  0.73188700  1
  O  O61  1  0.31503500  0.40742600  0.26811300  1
  O  O62  1  0.68496500  0.09257400  0.76811300  1
  O  O63  1  0.81503500  0.59257400  0.23188700  1
  O  O64  1  0.73979900  0.12672300  0.42860300  1
  O  O65  1  0.76020100  0.62672300  0.57139700  1
  O  O66  1  0.23979900  0.87327700  0.07139700  1
  O  O67  1  0.26020100  0.37327700  0.92860300  1
  O  O68  1  0.26020100  0.87327700  0.57139700  1
  O  O69  1  0.23979900  0.37327700  0.42860300  1
  O  O70  1  0.76020100  0.12672300  0.92860300  1
  O  O71  1  0.73979900  0.62672300  0.07139700  1
  O  O72  1  0.69300700  0.36743000  0.13946800  1
  O  O73  1  0.80699300  0.86743000  0.86053200  1
  O  O74  1  0.19300700  0.63257000  0.36053200  1
  O  O75  1  0.30699300  0.13257000  0.63946800  1
  O  O76  1  0.30699300  0.63257000  0.86053200  1
  O  O77  1  0.19300700  0.13257000  0.13946800  1
  O  O78  1  0.80699300  0.36743000  0.63946800  1
  O  O79  1  0.69300700  0.86743000  0.36053200  1
  O  O80  1  0.51557900  0.08121100  0.10637600  1
  O  O81  1  0.98442100  0.58121100  0.89362400  1
  O  O82  1  0.01557900  0.91878900  0.39362400  1
  O  O83  1  0.48442100  0.41878900  0.60637600  1
  O  O84  1  0.48442100  0.91878900  0.89362400  1
  O  O85  1  0.01557900  0.41878900  0.10637600  1
  O  O86  1  0.98442100  0.08121100  0.60637600  1
  O  O87  1  0.51557900  0.58121100  0.39362400  1
  O  O88  1  0.70867200  0.39192600  0.47523900  1
  O  O89  1  0.79132800  0.89192600  0.52476100  1
  O  O90  1  0.20867200  0.60807400  0.02476100  1
  O  O91  1  0.29132800  0.10807400  0.97523900  1
  O  O92  1  0.29132800  0.60807400  0.52476100  1
  O  O93  1  0.20867200  0.10807400  0.47523900  1
  O  O94  1  0.79132800  0.39192600  0.97523900  1
  O  O95  1  0.70867200  0.89192600  0.02476100  1
  O  O96  1  0.91424600  0.24356900  0.06160000  1
  O  O97  1  0.58575400  0.74356900  0.93840000  1
  O  O98  1  0.41424600  0.75643100  0.43840000  1
  O  O99  1  0.08575400  0.25643100  0.56160000  1
  O  O100  1  0.08575400  0.75643100  0.93840000  1
  O  O101  1  0.41424600  0.25643100  0.06160000  1
  O  O102  1  0.58575400  0.24356900  0.56160000  1
  O  O103  1  0.91424600  0.74356900  0.43840000  1
