# generated using pymatgen
data_Te(S2O7)2
_symmetry_space_group_name_H-M   'P 1'
_cell_length_a   6.97127300
_cell_length_b   6.98584078
_cell_length_c   12.32790041
_cell_angle_alpha   80.04255129
_cell_angle_beta   80.18960829
_cell_angle_gamma   77.34162647
_symmetry_Int_Tables_number   1
_chemical_formula_structural   Te(S2O7)2
_chemical_formula_sum   'Te2 S8 O28'
_cell_volume   571.44474375
_cell_formula_units_Z   2
loop_
 _symmetry_equiv_pos_site_id
 _symmetry_equiv_pos_as_xyz
  1  'x, y, z'
loop_
 _atom_site_type_symbol
 _atom_site_label
 _atom_site_symmetry_multiplicity
 _atom_site_fract_x
 _atom_site_fract_y
 _atom_site_fract_z
 _atom_site_occupancy
  Te  Te0  1  0.06670600  0.93799800  0.74970000  1
  Te  Te1  1  0.93721800  0.06420300  0.25015500  1
  S  S2  1  0.45860100  0.92460000  0.85873200  1
  S  S3  1  0.92730200  0.45699900  0.35793700  1
  S  S4  1  0.18991100  0.68935900  0.99819400  1
  S  S5  1  0.30817400  0.80742000  0.50756800  1
  S  S6  1  0.69018400  0.19067100  0.49776600  1
  S  S7  1  0.80728100  0.30877500  0.00683800  1
  S  S8  1  0.22506800  0.48976000  0.68104900  1
  S  S9  1  0.54767400  0.05869000  0.14718200  1
  O  O10  1  0.66656700  0.88842500  0.81846900  1
  O  O11  1  0.88917700  0.66488800  0.31875600  1
  O  O12  1  0.35372900  0.92911900  0.75148400  1
  O  O13  1  0.41879200  0.71850900  0.92937800  1
  O  O14  1  0.65099600  0.87685500  0.11039400  1
  O  O15  1  0.85271100  0.26499300  0.89518300  1
  O  O16  1  0.50602300  0.77517100  0.53223300  1
  O  O17  1  0.93129200  0.35157700  0.25144500  1
  O  O18  1  0.15857200  0.95028300  0.57928600  1
  O  O19  1  0.71969300  0.41764400  0.42909900  1
  O  O20  1  0.05287100  0.83685200  0.92328100  1
  O  O21  1  0.26483000  0.85101100  0.39577900  1
  O  O22  1  0.77674200  0.50554200  0.03135500  1
  O  O23  1  0.76244500  0.16658400  0.60209800  1
  O  O24  1  0.41831400  0.45919300  0.71206800  1
  O  O25  1  0.19702600  0.48627700  0.99234700  1
  O  O26  1  0.94636200  0.15572100  0.07945200  1
  O  O27  1  0.07350300  0.65123300  0.74676400  1
  O  O28  1  0.22142500  0.59643200  0.55356800  1
  O  O29  1  0.83414600  0.05218500  0.42217000  1
  O  O30  1  0.17012600  0.75786700  0.10324000  1
  O  O31  1  0.48547000  0.19962100  0.49343500  1
  O  O32  1  0.36381200  0.08783000  0.91594300  1
  O  O33  1  0.64501800  0.09843900  0.24849800  1
  O  O34  1  0.58247800  0.24562400  0.05613300  1
  O  O35  1  0.12163800  0.33145300  0.68847300  1
  O  O36  1  0.09019400  0.36257900  0.41614000  1
  O  O37  1  0.33809700  0.09735400  0.18251600  1
