# generated using pymatgen
data_Na5FeHO4
_symmetry_space_group_name_H-M   'P 1'
_cell_length_a   10.03710600
_cell_length_b   10.28845000
_cell_length_c   11.99199200
_cell_angle_alpha   90.00000000
_cell_angle_beta   90.00000000
_cell_angle_gamma   90.00000000
_symmetry_Int_Tables_number   1
_chemical_formula_structural   Na5FeHO4
_chemical_formula_sum   'Na40 Fe8 H8 O32'
_cell_volume   1238.36820247
_cell_formula_units_Z   8
loop_
 _symmetry_equiv_pos_site_id
 _symmetry_equiv_pos_as_xyz
  1  'x, y, z'
loop_
 _atom_site_type_symbol
 _atom_site_label
 _atom_site_symmetry_multiplicity
 _atom_site_fract_x
 _atom_site_fract_y
 _atom_site_fract_z
 _atom_site_occupancy
  Na  Na0  1  0.01098200  0.59197700  0.21920000  1
  Na  Na1  1  0.51098200  0.90802300  0.28080000  1
  Na  Na2  1  0.98901800  0.09197700  0.78080000  1
  Na  Na3  1  0.48901800  0.40802300  0.71920000  1
  Na  Na4  1  0.98901800  0.40802300  0.78080000  1
  Na  Na5  1  0.48901800  0.09197700  0.71920000  1
  Na  Na6  1  0.01098200  0.90802300  0.21920000  1
  Na  Na7  1  0.51098200  0.59197700  0.28080000  1
  Na  Na8  1  0.07206600  0.43320100  0.41351500  1
  Na  Na9  1  0.57206600  0.06679900  0.08648500  1
  Na  Na10  1  0.92793400  0.93320100  0.58648500  1
  Na  Na11  1  0.42793400  0.56679900  0.91351500  1
  Na  Na12  1  0.92793400  0.56679900  0.58648500  1
  Na  Na13  1  0.42793400  0.93320100  0.91351500  1
  Na  Na14  1  0.07206600  0.06679900  0.41351500  1
  Na  Na15  1  0.57206600  0.43320100  0.08648500  1
  Na  Na16  1  0.08708000  0.75000000  0.44640800  1
  Na  Na17  1  0.58708000  0.75000000  0.05359200  1
  Na  Na18  1  0.91292000  0.25000000  0.55359200  1
  Na  Na19  1  0.41292000  0.25000000  0.94640800  1
  Na  Na20  1  0.62982800  0.56105600  0.51349500  1
  Na  Na21  1  0.12982800  0.93894400  0.98650500  1
  Na  Na22  1  0.37017200  0.06105600  0.48650500  1
  Na  Na23  1  0.87017200  0.43894400  0.01349500  1
  Na  Na24  1  0.37017200  0.43894400  0.48650500  1
  Na  Na25  1  0.87017200  0.06105600  0.01349500  1
  Na  Na26  1  0.62982800  0.93894400  0.51349500  1
  Na  Na27  1  0.12982800  0.56105600  0.98650500  1
  Na  Na28  1  0.78543000  0.41900400  0.32125000  1
  Na  Na29  1  0.28543000  0.08099600  0.17875000  1
  Na  Na30  1  0.21457000  0.91900400  0.67875000  1
  Na  Na31  1  0.71457000  0.58099600  0.82125000  1
  Na  Na32  1  0.21457000  0.58099600  0.67875000  1
  Na  Na33  1  0.71457000  0.91900400  0.82125000  1
  Na  Na34  1  0.78543000  0.08099600  0.32125000  1
  Na  Na35  1  0.28543000  0.41900400  0.17875000  1
  Na  Na36  1  0.10876200  0.25000000  0.97901400  1
  Na  Na37  1  0.60876200  0.25000000  0.52098600  1
  Na  Na38  1  0.89123800  0.75000000  0.02098600  1
  Na  Na39  1  0.39123800  0.75000000  0.47901400  1
  Fe  Fe40  1  0.01654800  0.25000000  0.20657100  1
  Fe  Fe41  1  0.51654800  0.25000000  0.29342900  1
  Fe  Fe42  1  0.98345200  0.75000000  0.79342900  1
  Fe  Fe43  1  0.48345200  0.75000000  0.70657100  1
  Fe  Fe44  1  0.79832500  0.75000000  0.38516400  1
  Fe  Fe45  1  0.29832500  0.75000000  0.11483600  1
  Fe  Fe46  1  0.20167500  0.25000000  0.61483600  1
  Fe  Fe47  1  0.70167500  0.25000000  0.88516400  1
  H  H48  1  0.74077400  0.37334900  0.69792300  1
  H  H49  1  0.24077400  0.12665100  0.80207700  1
  H  H50  1  0.25922600  0.87334900  0.30207700  1
  H  H51  1  0.75922600  0.62665100  0.19792300  1
  H  H52  1  0.25922600  0.62665100  0.30207700  1
  H  H53  1  0.75922600  0.87334900  0.19792300  1
  H  H54  1  0.74077400  0.12665100  0.69792300  1
  H  H55  1  0.24077400  0.37334900  0.80207700  1
  O  O56  1  0.90274200  0.59501100  0.39388800  1
  O  O57  1  0.40274200  0.90498900  0.10611200  1
  O  O58  1  0.09725800  0.09501100  0.60611200  1
  O  O59  1  0.59725800  0.40498900  0.89388800  1
  O  O60  1  0.09725800  0.40498900  0.60611200  1
  O  O61  1  0.59725800  0.09501100  0.89388800  1
  O  O62  1  0.90274200  0.90498900  0.39388800  1
  O  O63  1  0.40274200  0.59501100  0.10611200  1
  O  O64  1  0.06209100  0.09521000  0.12654400  1
  O  O65  1  0.56209100  0.40479000  0.37345600  1
  O  O66  1  0.93790900  0.59521000  0.87345600  1
  O  O67  1  0.43790900  0.90479000  0.62654400  1
  O  O68  1  0.93790900  0.90479000  0.87345600  1
  O  O69  1  0.43790900  0.59521000  0.62654400  1
  O  O70  1  0.06209100  0.40479000  0.12654400  1
  O  O71  1  0.56209100  0.09521000  0.37345600  1
  O  O72  1  0.60806200  0.75000000  0.38995400  1
  O  O73  1  0.10806200  0.75000000  0.11004600  1
  O  O74  1  0.39193800  0.25000000  0.61004600  1
  O  O75  1  0.89193800  0.25000000  0.88995400  1
  O  O76  1  0.94159500  0.25000000  0.35330700  1
  O  O77  1  0.44159500  0.25000000  0.14669300  1
  O  O78  1  0.05840500  0.75000000  0.64669300  1
  O  O79  1  0.55840500  0.75000000  0.85330700  1
  O  O80  1  0.75146400  0.41886800  0.62661800  1
  O  O81  1  0.25146400  0.08113200  0.87338200  1
  O  O82  1  0.24853600  0.91886800  0.37338200  1
  O  O83  1  0.74853600  0.58113200  0.12661800  1
  O  O84  1  0.24853600  0.58113200  0.37338200  1
  O  O85  1  0.74853600  0.91886800  0.12661800  1
  O  O86  1  0.75146400  0.08113200  0.62661800  1
  O  O87  1  0.25146400  0.41886800  0.87338200  1
