# generated using pymatgen
data_MoH12Pd(NO)4
_symmetry_space_group_name_H-M   'P 1'
_cell_length_a   9.53451801
_cell_length_b   9.53451801
_cell_length_c   9.53451801
_cell_angle_alpha   133.33005665
_cell_angle_beta   133.33005665
_cell_angle_gamma   68.13628734
_symmetry_Int_Tables_number   1
_chemical_formula_structural   MoH12Pd(NO)4
_chemical_formula_sum   'Mo2 H24 Pd2 N8 O8'
_cell_volume   450.61379286
_cell_formula_units_Z   2
loop_
 _symmetry_equiv_pos_site_id
 _symmetry_equiv_pos_as_xyz
  1  'x, y, z'
loop_
 _atom_site_type_symbol
 _atom_site_label
 _atom_site_symmetry_multiplicity
 _atom_site_fract_x
 _atom_site_fract_y
 _atom_site_fract_z
 _atom_site_occupancy
  Mo  Mo0  1  0.75000000  0.25000000  0.50000000  1
  Mo  Mo1  1  0.00000000  0.00000000  0.00000000  1
  H  H2  1  0.18246700  0.37832200  0.19585600  1
  H  H3  1  0.12832200  0.43246700  0.69585600  1
  H  H4  1  0.73661100  0.43246700  0.30414400  1
  H  H5  1  0.18246700  0.98661100  0.80414400  1
  H  H6  1  0.56753300  0.87167800  0.30414400  1
  H  H7  1  0.62167800  0.81753300  0.80414400  1
  H  H8  1  0.01338900  0.81753300  0.19585600  1
  H  H9  1  0.56753300  0.26338900  0.69585600  1
  H  H10  1  0.38382500  0.44265700  0.27825900  1
  H  H11  1  0.16439800  0.44265700  0.05883200  1
  H  H12  1  0.19265700  0.63382500  0.77825900  1
  H  H13  1  0.85556600  0.63382500  0.44116800  1
  H  H14  1  0.38382500  0.10556600  0.94116800  1
  H  H15  1  0.16439800  0.10556600  0.72174100  1
  H  H16  1  0.19265700  0.41439800  0.55883200  1
  H  H17  1  0.85556600  0.41439800  0.22174100  1
  H  H18  1  0.36617500  0.80734300  0.22174100  1
  H  H19  1  0.58560200  0.80734300  0.44116800  1
  H  H20  1  0.55734300  0.61617500  0.72174100  1
  H  H21  1  0.89443400  0.61617500  0.05883200  1
  H  H22  1  0.36617500  0.14443400  0.55883200  1
  H  H23  1  0.58560200  0.14443400  0.77825900  1
  H  H24  1  0.55734300  0.83560200  0.94116800  1
  H  H25  1  0.89443400  0.83560200  0.27825900  1
  Pd  Pd26  1  0.25000000  0.75000000  0.50000000  1
  Pd  Pd27  1  0.50000000  0.50000000  0.00000000  1
  N  N28  1  0.24654200  0.47297700  0.22643500  1
  N  N29  1  0.22297700  0.49654200  0.72643500  1
  N  N30  1  0.77010700  0.49654200  0.27356500  1
  N  N31  1  0.24654200  0.02010700  0.77356500  1
  N  N32  1  0.50345800  0.77702300  0.27356500  1
  N  N33  1  0.52702300  0.75345800  0.77356500  1
  N  N34  1  0.97989300  0.75345800  0.22643500  1
  N  N35  1  0.50345800  0.22989300  0.72643500  1
  O  O36  1  0.61742700  0.31434400  0.30308300  1
  O  O37  1  0.01126100  0.31434400  0.69691700  1
  O  O38  1  0.06434400  0.86742700  0.80308300  1
  O  O39  1  0.06434400  0.26126100  0.19691700  1
  O  O40  1  0.13257300  0.93565600  0.19691700  1
  O  O41  1  0.73873900  0.93565600  0.80308300  1
  O  O42  1  0.68565600  0.38257300  0.69691700  1
  O  O43  1  0.68565600  0.98873900  0.30308300  1
