# generated using pymatgen
data_Na4(NiO2)9
_symmetry_space_group_name_H-M   'P 1'
_cell_length_a   7.08716800
_cell_length_b   7.10909410
_cell_length_c   7.51280728
_cell_angle_alpha   103.80079936
_cell_angle_beta   90.66573992
_cell_angle_gamma   105.81586556
_symmetry_Int_Tables_number   1
_chemical_formula_structural   Na4(NiO2)9
_chemical_formula_sum   'Na4 Ni9 O18'
_cell_volume   352.48513711
_cell_formula_units_Z   1
loop_
 _symmetry_equiv_pos_site_id
 _symmetry_equiv_pos_as_xyz
  1  'x, y, z'
loop_
 _atom_site_type_symbol
 _atom_site_label
 _atom_site_symmetry_multiplicity
 _atom_site_fract_x
 _atom_site_fract_y
 _atom_site_fract_z
 _atom_site_occupancy
  Na  Na0  1  0.10277600  0.09840400  0.69779200  1
  Na  Na1  1  0.20160000  0.19982800  0.30170500  1
  Na  Na2  1  0.58143400  0.58120800  0.36509200  1
  Na  Na3  1  0.67138600  0.67504800  0.97003500  1
  Ni  Ni4  1  0.05719200  0.54760400  0.83496700  1
  Ni  Ni5  1  0.50265600  0.00288000  0.49537600  1
  Ni  Ni6  1  0.16933700  0.66600300  0.50234900  1
  Ni  Ni7  1  0.60994300  0.11583300  0.16503800  1
  Ni  Ni8  1  0.71652300  0.22756700  0.83224400  1
  Ni  Ni9  1  0.27630700  0.77433700  0.16728200  1
  Ni  Ni10  1  0.83542000  0.32972800  0.49879900  1
  Ni  Ni11  1  0.38759300  0.88780000  0.83364500  1
  Ni  Ni12  1  0.94355000  0.44879300  0.17018700  1
  O  O13  1  0.98433600  0.31825500  0.93043600  1
  O  O14  1  0.09620200  0.40176600  0.59908700  1
  O  O15  1  0.32994300  0.00260000  0.07435200  1
  O  O16  1  0.45655900  0.14301800  0.72590400  1
  O  O17  1  0.31849800  0.62964900  0.93595900  1
  O  O18  1  0.56556200  0.23913300  0.40458600  1
  O  O19  1  0.77259000  0.08786000  0.57100500  1
  O  O20  1  0.11941100  0.78145400  0.74417600  1
  O  O21  1  0.21626800  0.54009900  0.26161000  1
  O  O22  1  0.79211400  0.46214700  0.73551400  1
  O  O23  1  0.67995200  0.38405500  0.09329600  1
  O  O24  1  0.44260800  0.77248100  0.58931400  1
  O  O25  1  0.88896200  0.21689100  0.25886300  1
  O  O26  1  0.23754200  0.92418300  0.40397200  1
  O  O27  1  0.89932000  0.56810700  0.41249800  1
  O  O28  1  0.65375200  0.99255300  0.92773000  1
  O  O29  1  0.53879500  0.85506100  0.25706300  1
  O  O30  1  0.00742600  0.68121300  0.07345200  1
