# generated using pymatgen
data_Li2Sn5
_symmetry_space_group_name_H-M   'P 1'
_cell_length_a   10.34605100
_cell_length_b   10.34605100
_cell_length_c   3.15855000
_cell_angle_alpha   90.00000000
_cell_angle_beta   90.00000000
_cell_angle_gamma   90.00000000
_symmetry_Int_Tables_number   1
_chemical_formula_structural   Li2Sn5
_chemical_formula_sum   'Li4 Sn10'
_cell_volume   338.09362817
_cell_formula_units_Z   2
loop_
 _symmetry_equiv_pos_site_id
 _symmetry_equiv_pos_as_xyz
  1  'x, y, z'
loop_
 _atom_site_type_symbol
 _atom_site_label
 _atom_site_symmetry_multiplicity
 _atom_site_fract_x
 _atom_site_fract_y
 _atom_site_fract_z
 _atom_site_occupancy
  Li  Li0  1  0.32507500  0.82507500  0.50000000  1
  Li  Li1  1  0.82507500  0.67492500  0.50000000  1
  Li  Li2  1  0.17492500  0.32507500  0.50000000  1
  Li  Li3  1  0.67492500  0.17492500  0.50000000  1
  Sn  Sn4  1  0.06817900  0.79517900  0.00000000  1
  Sn  Sn5  1  0.93182100  0.20482100  0.00000000  1
  Sn  Sn6  1  0.79517900  0.93182100  0.00000000  1
  Sn  Sn7  1  0.20482100  0.06817900  0.00000000  1
  Sn  Sn8  1  0.50000000  0.00000000  0.00000000  1
  Sn  Sn9  1  0.00000000  0.50000000  0.00000000  1
  Sn  Sn10  1  0.56817900  0.70482100  0.00000000  1
  Sn  Sn11  1  0.70482100  0.43182100  0.00000000  1
  Sn  Sn12  1  0.29517900  0.56817900  0.00000000  1
  Sn  Sn13  1  0.43182100  0.29517900  0.00000000  1
