# generated using pymatgen
data_K2Ge2O5
_symmetry_space_group_name_H-M   'P 1'
_cell_length_a   10.36852386
_cell_length_b   10.36852386
_cell_length_c   10.41420469
_cell_angle_alpha   68.55083916
_cell_angle_beta   68.55083916
_cell_angle_gamma   69.21002428
_symmetry_Int_Tables_number   1
_chemical_formula_structural   K2Ge2O5
_chemical_formula_sum   'K12 Ge12 O30'
_cell_volume   937.72341811
_cell_formula_units_Z   6
loop_
 _symmetry_equiv_pos_site_id
 _symmetry_equiv_pos_as_xyz
  1  'x, y, z'
loop_
 _atom_site_type_symbol
 _atom_site_label
 _atom_site_symmetry_multiplicity
 _atom_site_fract_x
 _atom_site_fract_y
 _atom_site_fract_z
 _atom_site_occupancy
  K  K0  1  0.31154600  0.36905400  0.03671800  1
  K  K1  1  0.03544000  0.56660400  0.21549500  1
  K  K2  1  0.36905400  0.31154600  0.53671800  1
  K  K3  1  0.56660400  0.03544000  0.71549500  1
  K  K4  1  0.16352400  0.71810900  0.37960700  1
  K  K5  1  0.89481300  0.38426400  0.06714500  1
  K  K6  1  0.71810900  0.16352400  0.87960700  1
  K  K7  1  0.85899400  0.32581900  0.47221400  1
  K  K8  1  0.38426400  0.89481300  0.56714500  1
  K  K9  1  0.32581900  0.85899400  0.97221400  1
  K  K10  1  0.76395900  0.79615500  0.48073300  1
  K  K11  1  0.79615500  0.76395900  0.98073300  1
  Ge  Ge12  1  0.12377400  0.09058600  0.27593600  1
  Ge  Ge13  1  0.09058600  0.12377400  0.77593600  1
  Ge  Ge14  1  0.61231300  0.15325400  0.26610000  1
  Ge  Ge15  1  0.95784400  0.99841400  0.12315600  1
  Ge  Ge16  1  0.47959500  0.52058100  0.17822800  1
  Ge  Ge17  1  0.15325400  0.61231300  0.76610000  1
  Ge  Ge18  1  0.99841400  0.95784400  0.62315600  1
  Ge  Ge19  1  0.52058100  0.47959500  0.67822800  1
  Ge  Ge20  1  0.60833700  0.63935700  0.33344400  1
  Ge  Ge21  1  0.47768700  0.97311400  0.17292200  1
  Ge  Ge22  1  0.63935700  0.60833700  0.83344400  1
  Ge  Ge23  1  0.97311400  0.47768700  0.67292200  1
  O  O24  1  0.09715400  0.06464800  0.12467200  1
  O  O25  1  0.00605100  0.00018300  0.43471300  1
  O  O26  1  0.06464800  0.09715400  0.62467200  1
  O  O27  1  0.09522100  0.26958300  0.24945200  1
  O  O28  1  0.00018300  0.00605100  0.93471300  1
  O  O29  1  0.51676700  0.13719600  0.15875200  1
  O  O30  1  0.26958300  0.09522100  0.74945200  1
  O  O31  1  0.57893300  0.05570900  0.43986700  1
  O  O32  1  0.31515300  0.56356500  0.15052500  1
  O  O33  1  0.79376300  0.14051400  0.14918400  1
  O  O34  1  0.13719600  0.51676700  0.65875200  1
  O  O35  1  0.55348600  0.33881200  0.26585700  1
  O  O36  1  0.05570900  0.57893300  0.93986700  1
  O  O37  1  0.61663500  0.57910800  0.02217800  1
  O  O38  1  0.56356500  0.31515300  0.65052500  1
  O  O39  1  0.45732100  0.60895700  0.31075900  1
  O  O40  1  0.14051400  0.79376300  0.64918400  1
  O  O41  1  0.33881200  0.55348600  0.76585700  1
  O  O42  1  0.29855600  0.97149300  0.29058800  1
  O  O43  1  0.57910800  0.61663500  0.52217800  1
  O  O44  1  0.77120100  0.54729800  0.25249100  1
  O  O45  1  0.51635200  0.96191500  0.00354300  1
  O  O46  1  0.60895700  0.45732100  0.81075900  1
  O  O47  1  0.58946700  0.83131200  0.27816200  1
  O  O48  1  0.97149300  0.29855600  0.79058800  1
  O  O49  1  0.54729800  0.77120100  0.75249100  1
  O  O50  1  0.96191500  0.51635200  0.50354300  1
  O  O51  1  0.83131200  0.58946700  0.77816200  1
  O  O52  1  0.95823600  0.83104200  0.23126000  1
  O  O53  1  0.83104200  0.95823600  0.73126000  1
