# generated using pymatgen
data_Fe3PH6PbSO14
_symmetry_space_group_name_H-M   'P 1'
_cell_length_a   7.10989962
_cell_length_b   7.10989962
_cell_length_c   7.10989908
_cell_angle_alpha   62.58320330
_cell_angle_beta   62.58320330
_cell_angle_gamma   62.58319927
_symmetry_Int_Tables_number   1
_chemical_formula_structural   Fe3PH6PbSO14
_chemical_formula_sum   'Fe3 P1 H6 Pb1 S1 O14'
_cell_volume   268.76247368
_cell_formula_units_Z   1
loop_
 _symmetry_equiv_pos_site_id
 _symmetry_equiv_pos_as_xyz
  1  'x, y, z'
loop_
 _atom_site_type_symbol
 _atom_site_label
 _atom_site_symmetry_multiplicity
 _atom_site_fract_x
 _atom_site_fract_y
 _atom_site_fract_z
 _atom_site_occupancy
  Fe  Fe0  1  0.00765900  0.00765900  0.49849000  1
  Fe  Fe1  1  0.49849000  0.00765900  0.00765900  1
  Fe  Fe2  1  0.00765900  0.49849000  0.00765900  1
  P  P3  1  0.31439800  0.31439800  0.31439800  1
  H  H4  1  0.69394400  0.28953200  0.69394400  1
  H  H5  1  0.69394400  0.69394400  0.28953200  1
  H  H6  1  0.28953200  0.69394400  0.69394400  1
  H  H7  1  0.31381700  0.70718300  0.31381700  1
  H  H8  1  0.31381700  0.31381700  0.70718300  1
  H  H9  1  0.70718300  0.31381700  0.31381700  1
  Pb  Pb10  1  0.99836300  0.99836300  0.99836300  1
  S  S11  1  0.69275800  0.69275800  0.69275800  1
  O  O12  1  0.60612700  0.60612700  0.60612700  1
  O  O13  1  0.40463100  0.40463100  0.40463100  1
  O  O14  1  0.83242500  0.50156900  0.83242500  1
  O  O15  1  0.83242500  0.83242500  0.50156900  1
  O  O16  1  0.50156900  0.83242500  0.83242500  1
  O  O17  1  0.16742600  0.51096400  0.16742600  1
  O  O18  1  0.16742600  0.16742600  0.51096400  1
  O  O19  1  0.51096400  0.16742600  0.16742600  1
  O  O20  1  0.74524700  0.12411900  0.74524700  1
  O  O21  1  0.74524700  0.74524700  0.12411900  1
  O  O22  1  0.12411900  0.74524700  0.74524700  1
  O  O23  1  0.26013500  0.87486200  0.26013500  1
  O  O24  1  0.26013500  0.26013500  0.87486200  1
  O  O25  1  0.87486200  0.26013500  0.26013500  1
