# generated using pymatgen
data_KIn(GeO3)2
_symmetry_space_group_name_H-M   'P 1'
_cell_length_a   7.13633558
_cell_length_b   7.13633558
_cell_length_c   5.72381140
_cell_angle_alpha   78.81997234
_cell_angle_beta   78.81997234
_cell_angle_gamma   85.06236057
_symmetry_Int_Tables_number   1
_chemical_formula_structural   KIn(GeO3)2
_chemical_formula_sum   'K2 In2 Ge4 O12'
_cell_volume   280.18339762
_cell_formula_units_Z   2
loop_
 _symmetry_equiv_pos_site_id
 _symmetry_equiv_pos_as_xyz
  1  'x, y, z'
loop_
 _atom_site_type_symbol
 _atom_site_label
 _atom_site_symmetry_multiplicity
 _atom_site_fract_x
 _atom_site_fract_y
 _atom_site_fract_z
 _atom_site_occupancy
  K  K0  1  0.31177600  0.68822400  0.75000000  1
  K  K1  1  0.68822400  0.31177600  0.25000000  1
  In  In2  1  0.89597900  0.10402100  0.75000000  1
  In  In3  1  0.10402100  0.89597900  0.25000000  1
  Ge  Ge4  1  0.19548800  0.37354800  0.29191500  1
  Ge  Ge5  1  0.80451200  0.62645200  0.70808500  1
  Ge  Ge6  1  0.62645200  0.80451200  0.20808500  1
  Ge  Ge7  1  0.37354800  0.19548800  0.79191500  1
  O  O8  1  0.63418400  0.66542100  0.97612900  1
  O  O9  1  0.33457900  0.36581600  0.52387100  1
  O  O10  1  0.36581600  0.33457900  0.02387100  1
  O  O11  1  0.66542100  0.63418400  0.47612900  1
  O  O12  1  0.39754100  0.90525500  0.28505500  1
  O  O13  1  0.09474500  0.60245900  0.21494500  1
  O  O14  1  0.60245900  0.09474500  0.71494500  1
  O  O15  1  0.90525500  0.39754100  0.78505500  1
  O  O16  1  0.96182400  0.81847100  0.62899600  1
  O  O17  1  0.18152900  0.03817600  0.87100400  1
  O  O18  1  0.03817600  0.18152900  0.37100400  1
  O  O19  1  0.81847100  0.96182400  0.12899600  1
