# generated using pymatgen
data_Nd3IrO7
_symmetry_space_group_name_H-M   'P 1'
_cell_length_a   6.65347217
_cell_length_b   6.65347217
_cell_length_c   7.60085300
_cell_angle_alpha   90.00000000
_cell_angle_beta   90.00000000
_cell_angle_gamma   111.09926105
_symmetry_Int_Tables_number   1
_chemical_formula_structural   Nd3IrO7
_chemical_formula_sum   'Nd6 Ir2 O14'
_cell_volume   313.92159980
_cell_formula_units_Z   2
loop_
 _symmetry_equiv_pos_site_id
 _symmetry_equiv_pos_as_xyz
  1  'x, y, z'
loop_
 _atom_site_type_symbol
 _atom_site_label
 _atom_site_symmetry_multiplicity
 _atom_site_fract_x
 _atom_site_fract_y
 _atom_site_fract_z
 _atom_site_occupancy
  Nd  Nd0  1  0.00000000  0.00000000  0.00000000  1
  Nd  Nd1  1  0.00000000  0.00000000  0.50000000  1
  Nd  Nd2  1  0.47523300  0.92001600  0.75000000  1
  Nd  Nd3  1  0.52476700  0.07998400  0.25000000  1
  Nd  Nd4  1  0.92001600  0.47523300  0.75000000  1
  Nd  Nd5  1  0.07998400  0.52476700  0.25000000  1
  Ir  Ir6  1  0.50000000  0.50000000  0.00000000  1
  Ir  Ir7  1  0.50000000  0.50000000  0.50000000  1
  O  O8  1  0.58938000  0.58938000  0.75000000  1
  O  O9  1  0.41062000  0.41062000  0.25000000  1
  O  O10  1  0.84389100  0.10791000  0.75000000  1
  O  O11  1  0.15610900  0.89209000  0.25000000  1
  O  O12  1  0.10791000  0.84389100  0.75000000  1
  O  O13  1  0.89209000  0.15610900  0.25000000  1
  O  O14  1  0.43974500  0.18752900  0.96172200  1
  O  O15  1  0.56025500  0.81247100  0.46172200  1
  O  O16  1  0.18752900  0.43974500  0.96172200  1
  O  O17  1  0.81247100  0.56025500  0.46172200  1
  O  O18  1  0.43974500  0.18752900  0.53827800  1
  O  O19  1  0.56025500  0.81247100  0.03827800  1
  O  O20  1  0.81247100  0.56025500  0.03827800  1
  O  O21  1  0.18752900  0.43974500  0.53827800  1
