# generated using pymatgen
data_Te6RhCl3
_symmetry_space_group_name_H-M   'P 1'
_cell_length_a   9.11152523
_cell_length_b   9.11152523
_cell_length_c   9.11152509
_cell_angle_alpha   107.63928843
_cell_angle_beta   107.63928843
_cell_angle_gamma   107.63929200
_symmetry_Int_Tables_number   1
_chemical_formula_structural   Te6RhCl3
_chemical_formula_sum   'Te12 Rh2 Cl6'
_cell_volume   618.65386372
_cell_formula_units_Z   2
loop_
 _symmetry_equiv_pos_site_id
 _symmetry_equiv_pos_as_xyz
  1  'x, y, z'
loop_
 _atom_site_type_symbol
 _atom_site_label
 _atom_site_symmetry_multiplicity
 _atom_site_fract_x
 _atom_site_fract_y
 _atom_site_fract_z
 _atom_site_occupancy
  Te  Te0  1  0.82532200  0.81203500  0.07898900  1
  Te  Te1  1  0.81203500  0.07898900  0.82532200  1
  Te  Te2  1  0.07898900  0.82532200  0.81203500  1
  Te  Te3  1  0.68796500  0.67467800  0.42101100  1
  Te  Te4  1  0.42101100  0.68796500  0.67467800  1
  Te  Te5  1  0.67467800  0.42101100  0.68796500  1
  Te  Te6  1  0.17467800  0.18796500  0.92101100  1
  Te  Te7  1  0.18796500  0.92101100  0.17467800  1
  Te  Te8  1  0.92101100  0.17467800  0.18796500  1
  Te  Te9  1  0.31203500  0.32532200  0.57898900  1
  Te  Te10  1  0.57898900  0.31203500  0.32532200  1
  Te  Te11  1  0.32532200  0.57898900  0.31203500  1
  Rh  Rh12  1  0.75000000  0.75000000  0.75000000  1
  Rh  Rh13  1  0.25000000  0.25000000  0.25000000  1
  Cl  Cl14  1  0.75000000  0.01483300  0.48516700  1
  Cl  Cl15  1  0.48516700  0.75000000  0.01483300  1
  Cl  Cl16  1  0.01483300  0.48516700  0.75000000  1
  Cl  Cl17  1  0.25000000  0.98516700  0.51483300  1
  Cl  Cl18  1  0.51483300  0.25000000  0.98516700  1
  Cl  Cl19  1  0.98516700  0.51483300  0.25000000  1
