# generated using pymatgen
data_LuCoGe2
_symmetry_space_group_name_H-M   'P 1'
_cell_length_a   8.59039512
_cell_length_b   8.59039512
_cell_length_c   4.11945600
_cell_angle_alpha   90.00000000
_cell_angle_beta   90.00000000
_cell_angle_gamma   152.62412673
_symmetry_Int_Tables_number   1
_chemical_formula_structural   LuCoGe2
_chemical_formula_sum   'Lu2 Co2 Ge4'
_cell_volume   139.78467844
_cell_formula_units_Z   2
loop_
 _symmetry_equiv_pos_site_id
 _symmetry_equiv_pos_as_xyz
  1  'x, y, z'
loop_
 _atom_site_type_symbol
 _atom_site_label
 _atom_site_symmetry_multiplicity
 _atom_site_fract_x
 _atom_site_fract_y
 _atom_site_fract_z
 _atom_site_occupancy
  Lu  Lu0  1  0.10980200  0.89019800  0.25000000  1
  Lu  Lu1  1  0.89019800  0.10980200  0.75000000  1
  Co  Co2  1  0.32164100  0.67835900  0.25000000  1
  Co  Co3  1  0.67835900  0.32164100  0.75000000  1
  Ge  Ge4  1  0.74862300  0.25137700  0.25000000  1
  Ge  Ge5  1  0.25137700  0.74862300  0.75000000  1
  Ge  Ge6  1  0.45602300  0.54397700  0.25000000  1
  Ge  Ge7  1  0.54397700  0.45602300  0.75000000  1
