# generated using pymatgen
data_BaMoF7
_symmetry_space_group_name_H-M   'P 1'
_cell_length_a   10.13988000
_cell_length_b   5.69711900
_cell_length_c   10.64107967
_cell_angle_alpha   87.38185285
_cell_angle_beta   90.00000000
_cell_angle_gamma   90.00000000
_symmetry_Int_Tables_number   1
_chemical_formula_structural   BaMoF7
_chemical_formula_sum   'Ba4 Mo4 F28'
_cell_volume   614.07331744
_cell_formula_units_Z   4
loop_
 _symmetry_equiv_pos_site_id
 _symmetry_equiv_pos_as_xyz
  1  'x, y, z'
loop_
 _atom_site_type_symbol
 _atom_site_label
 _atom_site_symmetry_multiplicity
 _atom_site_fract_x
 _atom_site_fract_y
 _atom_site_fract_z
 _atom_site_occupancy
  Ba  Ba0  1  0.33321500  0.30185900  0.50650400  1
  Ba  Ba1  1  0.83321500  0.69814100  0.99349600  1
  Ba  Ba2  1  0.66678500  0.69814100  0.49349600  1
  Ba  Ba3  1  0.16678500  0.30185900  0.00650400  1
  Mo  Mo4  1  0.61044900  0.18477300  0.18677700  1
  Mo  Mo5  1  0.38955100  0.81522700  0.81322300  1
  Mo  Mo6  1  0.88955100  0.18477300  0.68677700  1
  Mo  Mo7  1  0.11044900  0.81522700  0.31322300  1
  F  F8  1  0.45559100  0.09887000  0.87591800  1
  F  F9  1  0.05129400  0.32618000  0.63171100  1
  F  F10  1  0.69451500  0.46269700  0.24237700  1
  F  F11  1  0.30548500  0.53730300  0.75762300  1
  F  F12  1  0.45430700  0.88366000  0.64158500  1
  F  F13  1  0.80547900  0.25704300  0.52478800  1
  F  F14  1  0.76300400  0.00087000  0.23979500  1
  F  F15  1  0.95430700  0.11634000  0.85841500  1
  F  F16  1  0.44870600  0.32618000  0.13171100  1
  F  F17  1  0.19451500  0.53730300  0.25762300  1
  F  F18  1  0.04440900  0.09887000  0.37591800  1
  F  F19  1  0.54440900  0.90113000  0.12408200  1
  F  F20  1  0.26300400  0.99913000  0.26020500  1
  F  F21  1  0.95819200  0.38713000  0.11268400  1
  F  F22  1  0.54569300  0.11634000  0.35841500  1
  F  F23  1  0.04569300  0.88366000  0.14158500  1
  F  F24  1  0.23699600  0.99913000  0.76020500  1
  F  F25  1  0.95559100  0.90113000  0.62408200  1
  F  F26  1  0.45819200  0.61287000  0.38731600  1
  F  F27  1  0.94870600  0.67382000  0.36828900  1
  F  F28  1  0.04180800  0.61287000  0.88731600  1
  F  F29  1  0.73699600  0.00087000  0.73979500  1
  F  F30  1  0.54180800  0.38713000  0.61268400  1
  F  F31  1  0.30547900  0.74295700  0.97521200  1
  F  F32  1  0.19452100  0.74295700  0.47521200  1
  F  F33  1  0.69452100  0.25704300  0.02478800  1
  F  F34  1  0.55129400  0.67382000  0.86828900  1
  F  F35  1  0.80548500  0.46269700  0.74237700  1
