# generated using pymatgen
data_Sr2CaWO6
_symmetry_space_group_name_H-M   'P 1'
_cell_length_a   5.90471962
_cell_length_b   5.90471962
_cell_length_c   5.90471962
_cell_angle_alpha   120.78531831
_cell_angle_beta   120.78531831
_cell_angle_gamma   88.64508695
_symmetry_Int_Tables_number   1
_chemical_formula_structural   Sr2CaWO6
_chemical_formula_sum   'Sr2 Ca1 W1 O6'
_cell_volume   143.80208022
_cell_formula_units_Z   1
loop_
 _symmetry_equiv_pos_site_id
 _symmetry_equiv_pos_as_xyz
  1  'x, y, z'
loop_
 _atom_site_type_symbol
 _atom_site_label
 _atom_site_symmetry_multiplicity
 _atom_site_fract_x
 _atom_site_fract_y
 _atom_site_fract_z
 _atom_site_occupancy
  Sr  Sr0  1  0.25000000  0.75000000  0.50000000  1
  Sr  Sr1  1  0.75000000  0.25000000  0.50000000  1
  Ca  Ca2  1  0.50000000  0.50000000  0.00000000  1
  W  W3  1  0.00000000  0.00000000  0.00000000  1
  O  O4  1  0.83793800  0.70646300  0.54440100  1
  O  O5  1  0.16206200  0.29353700  0.45559900  1
  O  O6  1  0.70646300  0.16206200  0.86852500  1
  O  O7  1  0.29353700  0.83793800  0.13147500  1
  O  O8  1  0.23140500  0.23140500  0.00000000  1
  O  O9  1  0.76859500  0.76859500  0.00000000  1
