# generated using pymatgen
data_MgVCrO4
_symmetry_space_group_name_H-M   'P 1'
_cell_length_a   6.03654406
_cell_length_b   6.03479345
_cell_length_c   6.02934212
_cell_angle_alpha   90.24104102
_cell_angle_beta   120.04347594
_cell_angle_gamma   59.74369078
_symmetry_Int_Tables_number   1
_chemical_formula_structural   MgVCrO4
_chemical_formula_sum   'Mg2 V2 Cr2 O8'
_cell_volume   154.93334662
_cell_formula_units_Z   2
loop_
 _symmetry_equiv_pos_site_id
 _symmetry_equiv_pos_as_xyz
  1  'x, y, z'
loop_
 _atom_site_type_symbol
 _atom_site_label
 _atom_site_symmetry_multiplicity
 _atom_site_fract_x
 _atom_site_fract_y
 _atom_site_fract_z
 _atom_site_occupancy
  Mg  Mg0  1  0.25018200  0.12610900  0.12430500  1
  Mg  Mg1  1  0.74982600  0.87389400  0.87569600  1
  V  V2  1  0.99993400  0.99998900  0.50002000  1
  V  V3  1  0.49999900  0.49999500  0.49997300  1
  Cr  Cr4  1  0.49993800  0.50006900  0.99997900  1
  Cr  Cr5  1  0.00003300  0.49997700  0.50004000  1
  O  O6  1  0.52258700  0.71940300  0.25906700  1
  O  O7  1  0.97775700  0.26489300  0.25790200  1
  O  O8  1  0.47747600  0.28056200  0.74098200  1
  O  O9  1  0.02230400  0.73505300  0.74206700  1
  O  O10  1  0.98046100  0.26064400  0.71865400  1
  O  O11  1  0.51867900  0.26154500  0.25655800  1
  O  O12  1  0.01951400  0.73934900  0.28132600  1
  O  O13  1  0.48130900  0.73851800  0.74343100  1
