# generated using pymatgen
data_Mg(ReO4)2
_symmetry_space_group_name_H-M   'P 1'
_cell_length_a   5.81859816
_cell_length_b   5.81863702
_cell_length_c   6.66660312
_cell_angle_alpha   89.99780682
_cell_angle_beta   89.99765836
_cell_angle_gamma   119.99969479
_symmetry_Int_Tables_number   1
_chemical_formula_structural   Mg(ReO4)2
_chemical_formula_sum   'Mg1 Re2 O8'
_cell_volume   195.46823827
_cell_formula_units_Z   1
loop_
 _symmetry_equiv_pos_site_id
 _symmetry_equiv_pos_as_xyz
  1  'x, y, z'
loop_
 _atom_site_type_symbol
 _atom_site_label
 _atom_site_symmetry_multiplicity
 _atom_site_fract_x
 _atom_site_fract_y
 _atom_site_fract_z
 _atom_site_occupancy
  Mg  Mg0  1  0.99998089  0.00000126  1.00000003  1
  Re  Re1  1  0.33327286  0.66662270  0.26742076  1
  Re  Re2  1  0.66669039  0.33337742  0.73257869  1
  O  O3  1  0.16983188  0.83162651  0.17944755  1
  O  O4  1  0.16826078  0.33817298  0.17947787  1
  O  O5  1  0.33329315  0.66664135  0.52749290  1
  O  O6  1  0.33825013  0.16994139  0.82058252  1
  O  O7  1  0.66171263  0.83005399  0.17941585  1
  O  O8  1  0.66667280  0.33335885  0.47250673  1
  O  O9  1  0.83169869  0.66182655  0.82052251  1
  O  O10  1  0.83013480  0.16837700  0.82055260  1
