# generated using pymatgen
data_MgZrN2
_symmetry_space_group_name_H-M   'P 1'
_cell_length_a   4.49404221
_cell_length_b   4.49404152
_cell_length_c   5.61499482
_cell_angle_alpha   113.58892534
_cell_angle_beta   113.58892791
_cell_angle_gamma   90.00048319
_symmetry_Int_Tables_number   1
_chemical_formula_structural   MgZrN2
_chemical_formula_sum   'Mg2 Zr2 N4'
_cell_volume   93.49519757
_cell_formula_units_Z   2
loop_
 _symmetry_equiv_pos_site_id
 _symmetry_equiv_pos_as_xyz
  1  'x, y, z'
loop_
 _atom_site_type_symbol
 _atom_site_label
 _atom_site_symmetry_multiplicity
 _atom_site_fract_x
 _atom_site_fract_y
 _atom_site_fract_z
 _atom_site_occupancy
  Mg  Mg0  1  0.37500133  0.12499857  0.74999998  1
  Mg  Mg1  1  0.62499867  0.87500143  0.25000002  1
  Zr  Zr2  1  0.12499854  0.37500152  0.25000005  1
  Zr  Zr3  1  0.87500146  0.62499848  0.74999995  1
  N  N4  1  0.88380479  0.13379799  0.76760559  1
  N  N5  1  0.11619521  0.86620201  0.23239441  1
  N  N6  1  0.36620182  0.61619550  0.73239439  1
  N  N7  1  0.63379818  0.38380450  0.26760561  1
