# generated using pymatgen
data_Ce2Mn3Si4Pd
_symmetry_space_group_name_H-M   'P 1'
_cell_length_a   4.03298600
_cell_length_b   4.03298600
_cell_length_c   10.34013400
_cell_angle_alpha   90.00000000
_cell_angle_beta   90.00000000
_cell_angle_gamma   90.00000000
_symmetry_Int_Tables_number   1
_chemical_formula_structural   Ce2Mn3Si4Pd
_chemical_formula_sum   'Ce2 Mn3 Si4 Pd1'
_cell_volume   168.18203213
_cell_formula_units_Z   1
loop_
 _symmetry_equiv_pos_site_id
 _symmetry_equiv_pos_as_xyz
  1  'x, y, z'
loop_
 _atom_site_type_symbol
 _atom_site_label
 _atom_site_symmetry_multiplicity
 _atom_site_fract_x
 _atom_site_fract_y
 _atom_site_fract_z
 _atom_site_occupancy
  Ce  Ce0  1  0.50000000  0.00000000  0.74510400  1
  Ce  Ce1  1  0.00000000  0.50000000  0.25489600  1
  Mn  Mn2  1  0.00000000  0.00000000  0.50000000  1
  Mn  Mn3  1  0.00000000  0.00000000  0.00000000  1
  Mn  Mn4  1  0.50000000  0.50000000  0.50000000  1
  Si  Si5  1  0.00000000  0.50000000  0.86173900  1
  Si  Si6  1  0.50000000  0.00000000  0.37184400  1
  Si  Si7  1  0.50000000  0.00000000  0.13826100  1
  Si  Si8  1  0.00000000  0.50000000  0.62815600  1
  Pd  Pd9  1  0.50000000  0.50000000  0.00000000  1
