# generated using pymatgen
data_La3Rh2
_symmetry_space_group_name_H-M   'P 1'
_cell_length_a   7.72693270
_cell_length_b   7.72693270
_cell_length_c   7.72693283
_cell_angle_alpha   71.22332961
_cell_angle_beta   71.22332961
_cell_angle_gamma   71.22332912
_symmetry_Int_Tables_number   1
_chemical_formula_structural   La3Rh2
_chemical_formula_sum   'La9 Rh6'
_cell_volume   401.09483804
_cell_formula_units_Z   3
loop_
 _symmetry_equiv_pos_site_id
 _symmetry_equiv_pos_as_xyz
  1  'x, y, z'
loop_
 _atom_site_type_symbol
 _atom_site_label
 _atom_site_symmetry_multiplicity
 _atom_site_fract_x
 _atom_site_fract_y
 _atom_site_fract_z
 _atom_site_occupancy
  La  La0  1  0.00000000  0.00000000  0.00000000  1
  La  La1  1  0.79789500  0.79789500  0.79789500  1
  La  La2  1  0.20210500  0.20210500  0.20210500  1
  La  La3  1  0.16429700  0.39043900  0.66739100  1
  La  La4  1  0.66739100  0.16429700  0.39043900  1
  La  La5  1  0.39043900  0.66739100  0.16429700  1
  La  La6  1  0.83570300  0.60956100  0.33260900  1
  La  La7  1  0.33260900  0.83570300  0.60956100  1
  La  La8  1  0.60956100  0.33260900  0.83570300  1
  Rh  Rh9  1  0.95609500  0.16556000  0.59015700  1
  Rh  Rh10  1  0.59015700  0.95609500  0.16556000  1
  Rh  Rh11  1  0.16556000  0.59015700  0.95609500  1
  Rh  Rh12  1  0.04390500  0.83444000  0.40984300  1
  Rh  Rh13  1  0.40984300  0.04390500  0.83444000  1
  Rh  Rh14  1  0.83444000  0.40984300  0.04390500  1
