# generated using pymatgen
data_Gd5P12Ru19
_symmetry_space_group_name_H-M   'P 1'
_cell_length_a   3.99316500
_cell_length_b   12.57759097
_cell_length_c   12.56192007
_cell_angle_alpha   120.04127429
_cell_angle_beta   90.00000000
_cell_angle_gamma   90.00000000
_symmetry_Int_Tables_number   1
_chemical_formula_structural   Gd5P12Ru19
_chemical_formula_sum   'Gd5 P12 Ru19'
_cell_volume   546.16089779
_cell_formula_units_Z   1
loop_
 _symmetry_equiv_pos_site_id
 _symmetry_equiv_pos_as_xyz
  1  'x, y, z'
loop_
 _atom_site_type_symbol
 _atom_site_label
 _atom_site_symmetry_multiplicity
 _atom_site_fract_x
 _atom_site_fract_y
 _atom_site_fract_z
 _atom_site_occupancy
  Gd  Gd0  1  0.50000000  0.99993900  0.18308300  1
  Gd  Gd1  1  0.50000000  0.18352100  0.00000000  1
  Gd  Gd2  1  0.50000000  0.81685600  0.81691700  1
  Gd  Gd3  1  0.00000000  0.33324800  0.66681900  1
  Gd  Gd4  1  0.00000000  0.66642900  0.33318100  1
  P  P5  1  0.00000000  0.00024900  0.81460300  1
  P  P6  1  0.00000000  0.81426100  0.00000000  1
  P  P7  1  0.00000000  0.18564500  0.18539700  1
  P  P8  1  0.50000000  0.30556400  0.47719700  1
  P  P9  1  0.50000000  0.17105800  0.69363700  1
  P  P10  1  0.50000000  0.52269800  0.82875800  1
  P  P11  1  0.50000000  0.82836700  0.52280300  1
  P  P12  1  0.50000000  0.47742100  0.30636300  1
  P  P13  1  0.50000000  0.69394000  0.17124200  1
  P  P14  1  0.00000000  0.00022300  0.37339600  1
  P  P15  1  0.00000000  0.37349100  0.00000000  1
  P  P16  1  0.00000000  0.62682700  0.62660400  1
  Ru  Ru17  1  0.00000000  0.00051900  0.55463900  1
  Ru  Ru18  1  0.00000000  0.55473800  0.00000000  1
  Ru  Ru19  1  0.00000000  0.44588000  0.44536100  1
  Ru  Ru20  1  0.50000000  0.99978300  0.71590800  1
  Ru  Ru21  1  0.50000000  0.71600300  0.00000000  1
  Ru  Ru22  1  0.50000000  0.28387500  0.28409200  1
  Ru  Ru23  1  0.00000000  0.19283600  0.37721400  1
  Ru  Ru24  1  0.00000000  0.18501500  0.80756300  1
  Ru  Ru25  1  0.00000000  0.62265700  0.81494300  1
  Ru  Ru26  1  0.00000000  0.81562100  0.62278600  1
  Ru  Ru27  1  0.00000000  0.37745300  0.19243700  1
  Ru  Ru28  1  0.00000000  0.80771400  0.18505700  1
  Ru  Ru29  1  0.50000000  0.12514300  0.49124700  1
  Ru  Ru30  1  0.50000000  0.36590800  0.87431800  1
  Ru  Ru31  1  0.50000000  0.50778900  0.63381600  1
  Ru  Ru32  1  0.50000000  0.63389600  0.50875300  1
  Ru  Ru33  1  0.50000000  0.49159000  0.12568200  1
  Ru  Ru34  1  0.50000000  0.87397300  0.36618400  1
  Ru  Ru35  1  0.00000000  0.99977400  0.00000000  1
