# generated using pymatgen
data_LiFeN
_symmetry_space_group_name_H-M   'P 1'
_cell_length_a   2.88205424
_cell_length_b   9.35426171
_cell_length_c   5.20355344
_cell_angle_alpha   90.00000000
_cell_angle_beta   123.63240316
_cell_angle_gamma   90.00000000
_symmetry_Int_Tables_number   1
_chemical_formula_structural   LiFeN
_chemical_formula_sum   'Li4 Fe4 N4'
_cell_volume   116.80255397
_cell_formula_units_Z   4
loop_
 _symmetry_equiv_pos_site_id
 _symmetry_equiv_pos_as_xyz
  1  'x, y, z'
loop_
 _atom_site_type_symbol
 _atom_site_label
 _atom_site_symmetry_multiplicity
 _atom_site_fract_x
 _atom_site_fract_y
 _atom_site_fract_z
 _atom_site_occupancy
  Li  Li0  1  0.48735900  0.50133869  0.73736918  1
  Li  Li1  1  0.51264100  0.00133869  0.76263082  1
  Li  Li2  1  0.51264100  0.49866131  0.26263082  1
  Li  Li3  1  0.48735900  0.99866131  0.23736918  1
  Fe  Fe4  1  0.20668822  0.24165990  0.95684388  1
  Fe  Fe5  1  0.79331178  0.74165990  0.54315612  1
  Fe  Fe6  1  0.79331178  0.75834010  0.04315612  1
  Fe  Fe7  1  0.20668822  0.25834010  0.45684388  1
  N  N8  1  0.13373745  0.85309187  0.88368877  1
  N  N9  1  0.86626255  0.35309187  0.61631123  1
  N  N10  1  0.86626255  0.14690813  0.11631123  1
  N  N11  1  0.13373745  0.64690813  0.38368877  1
