# generated using pymatgen
data_Fe2SbTe3
_symmetry_space_group_name_H-M   'P 1'
_cell_length_a   3.74308100
_cell_length_b   5.37607000
_cell_length_c   6.28867652
_cell_angle_alpha   89.25927784
_cell_angle_beta   90.00000000
_cell_angle_gamma   90.00000000
_symmetry_Int_Tables_number   1
_chemical_formula_structural   Fe2SbTe3
_chemical_formula_sum   'Fe2 Sb1 Te3'
_cell_volume   126.53687427
_cell_formula_units_Z   1
loop_
 _symmetry_equiv_pos_site_id
 _symmetry_equiv_pos_as_xyz
  1  'x, y, z'
loop_
 _atom_site_type_symbol
 _atom_site_label
 _atom_site_symmetry_multiplicity
 _atom_site_fract_x
 _atom_site_fract_y
 _atom_site_fract_z
 _atom_site_occupancy
  Fe  Fe0  1  0.50000000  0.50427300  0.50146100  1
  Fe  Fe1  1  0.00000000  0.99690900  0.99565700  1
  Sb  Sb2  1  0.50000000  0.28325900  0.14565300  1
  Te  Te3  1  0.50000000  0.71442300  0.86099200  1
  Te  Te4  1  0.00000000  0.77804200  0.35487200  1
  Te  Te5  1  0.00000000  0.22309400  0.64136400  1
