# generated using pymatgen
data_Rb3SmCl6
_symmetry_space_group_name_H-M   'P 1'
_cell_length_a   13.82330389
_cell_length_b   13.82330389
_cell_length_c   13.13639522
_cell_angle_alpha   81.03618866
_cell_angle_beta   81.03618866
_cell_angle_gamma   34.01925392
_symmetry_Int_Tables_number   1
_chemical_formula_structural   Rb3SmCl6
_chemical_formula_sum   'Rb12 Sm4 Cl24'
_cell_volume   1385.59062351
_cell_formula_units_Z   4
loop_
 _symmetry_equiv_pos_site_id
 _symmetry_equiv_pos_as_xyz
  1  'x, y, z'
loop_
 _atom_site_type_symbol
 _atom_site_label
 _atom_site_symmetry_multiplicity
 _atom_site_fract_x
 _atom_site_fract_y
 _atom_site_fract_z
 _atom_site_occupancy
  Rb  Rb0  1  0.30133900  0.79797400  0.06620000  1
  Rb  Rb1  1  0.69866100  0.20202600  0.93380000  1
  Rb  Rb2  1  0.20202600  0.69866100  0.43380000  1
  Rb  Rb3  1  0.79797400  0.30133900  0.56620000  1
  Rb  Rb4  1  0.46514900  0.84278400  0.35667700  1
  Rb  Rb5  1  0.53485100  0.15721600  0.64332300  1
  Rb  Rb6  1  0.15721600  0.53485100  0.14332300  1
  Rb  Rb7  1  0.84278400  0.46514900  0.85667700  1
  Rb  Rb8  1  0.65024600  0.02546300  0.30032900  1
  Rb  Rb9  1  0.34975400  0.97453700  0.69967100  1
  Rb  Rb10  1  0.97453700  0.34975400  0.19967100  1
  Rb  Rb11  1  0.02546300  0.65024600  0.80032900  1
  Sm  Sm12  1  0.78372500  0.21627500  0.25000000  1
  Sm  Sm13  1  0.21627500  0.78372500  0.75000000  1
  Sm  Sm14  1  0.50000000  0.00000000  0.00000000  1
  Sm  Sm15  1  0.00000000  0.50000000  0.50000000  1
  Cl  Cl16  1  0.62342400  0.71866100  0.08065800  1
  Cl  Cl17  1  0.37657600  0.28133900  0.91934200  1
  Cl  Cl18  1  0.28133900  0.37657600  0.41934200  1
  Cl  Cl19  1  0.71866100  0.62342400  0.58065800  1
  Cl  Cl20  1  0.49451700  0.38573500  0.17645000  1
  Cl  Cl21  1  0.50548300  0.61426500  0.82355000  1
  Cl  Cl22  1  0.61426500  0.50548300  0.32355000  1
  Cl  Cl23  1  0.38573500  0.49451700  0.67645000  1
  Cl  Cl24  1  0.78825000  0.86027900  0.03301400  1
  Cl  Cl25  1  0.21175000  0.13972100  0.96698600  1
  Cl  Cl26  1  0.13972100  0.21175000  0.46698600  1
  Cl  Cl27  1  0.86027900  0.78825000  0.53301400  1
  Cl  Cl28  1  0.90560100  0.97342600  0.69935000  1
  Cl  Cl29  1  0.09439900  0.02657400  0.30065000  1
  Cl  Cl30  1  0.02657400  0.09439900  0.80065000  1
  Cl  Cl31  1  0.97342600  0.90560100  0.19935000  1
  Cl  Cl32  1  0.71718500  0.16620200  0.43716400  1
  Cl  Cl33  1  0.28281500  0.83379800  0.56283600  1
  Cl  Cl34  1  0.83379800  0.28281500  0.06283600  1
  Cl  Cl35  1  0.16620200  0.71718500  0.93716400  1
  Cl  Cl36  1  0.35709300  0.14426100  0.18825800  1
  Cl  Cl37  1  0.64290700  0.85573900  0.81174200  1
  Cl  Cl38  1  0.85573900  0.64290700  0.31174200  1
  Cl  Cl39  1  0.14426100  0.35709300  0.68825800  1
