# generated using pymatgen
data_Mg2NbN3
_symmetry_space_group_name_H-M   'P 1'
_cell_length_a   5.70429921
_cell_length_b   5.70430018
_cell_length_c   5.75027385
_cell_angle_alpha   66.93695573
_cell_angle_beta   66.93695780
_cell_angle_gamma   65.92510925
_symmetry_Int_Tables_number   1
_chemical_formula_structural   Mg2NbN3
_chemical_formula_sum   'Mg4 Nb2 N6'
_cell_volume   151.06854563
_cell_formula_units_Z   2
loop_
 _symmetry_equiv_pos_site_id
 _symmetry_equiv_pos_as_xyz
  1  'x, y, z'
loop_
 _atom_site_type_symbol
 _atom_site_label
 _atom_site_symmetry_multiplicity
 _atom_site_fract_x
 _atom_site_fract_y
 _atom_site_fract_z
 _atom_site_occupancy
  Mg  Mg0  1  0.75437300  0.91584721  0.07739338  1
  Mg  Mg1  1  0.08415279  0.24562700  0.42260662  1
  Mg  Mg2  1  0.24562700  0.08415279  0.92260662  1
  Mg  Mg3  1  0.91584721  0.75437300  0.57739338  1
  Nb  Nb4  1  0.41103706  0.58896294  0.75000000  1
  Nb  Nb5  1  0.58896294  0.41103706  0.25000000  1
  N  N6  1  0.09839858  0.90160142  0.75000000  1
  N  N7  1  0.90160142  0.09839858  0.25000000  1
  N  N8  1  0.72740294  0.58720164  0.42581905  1
  N  N9  1  0.41279836  0.27259706  0.07418095  1
  N  N10  1  0.27259706  0.41279836  0.57418095  1
  N  N11  1  0.58720164  0.72740294  0.92581905  1
