# generated using pymatgen
data_Rb8Th(MoO4)6
_symmetry_space_group_name_H-M   'P 1'
_cell_length_a   10.71181369
_cell_length_b   10.71181369
_cell_length_c   15.31200844
_cell_angle_alpha   83.15770978
_cell_angle_beta   83.15770978
_cell_angle_gamma   118.47447141
_symmetry_Int_Tables_number   1
_chemical_formula_structural   Rb8Th(MoO4)6
_chemical_formula_sum   'Rb16 Th2 Mo12 O48'
_cell_volume   1501.92788573
_cell_formula_units_Z   2
loop_
 _symmetry_equiv_pos_site_id
 _symmetry_equiv_pos_as_xyz
  1  'x, y, z'
loop_
 _atom_site_type_symbol
 _atom_site_label
 _atom_site_symmetry_multiplicity
 _atom_site_fract_x
 _atom_site_fract_y
 _atom_site_fract_z
 _atom_site_occupancy
  Rb  Rb0  1  0.91430700  0.08569300  0.25000000  1
  Rb  Rb1  1  0.08569300  0.91430700  0.75000000  1
  Rb  Rb2  1  0.96820800  0.81512200  0.05033700  1
  Rb  Rb3  1  0.18487800  0.03179200  0.44966300  1
  Rb  Rb4  1  0.03179200  0.18487800  0.94966300  1
  Rb  Rb5  1  0.81512200  0.96820800  0.55033700  1
  Rb  Rb6  1  0.31903300  0.47713400  0.04545200  1
  Rb  Rb7  1  0.52286600  0.68096700  0.45454800  1
  Rb  Rb8  1  0.68096700  0.52286600  0.95454800  1
  Rb  Rb9  1  0.47713400  0.31903300  0.54545200  1
  Rb  Rb10  1  0.58950800  0.41049200  0.25000000  1
  Rb  Rb11  1  0.41049200  0.58950800  0.75000000  1
  Rb  Rb12  1  0.67266800  0.16795000  0.04680300  1
  Rb  Rb13  1  0.83205000  0.32733200  0.45319700  1
  Rb  Rb14  1  0.32733200  0.83205000  0.95319700  1
  Rb  Rb15  1  0.16795000  0.67266800  0.54680300  1
  Th  Th16  1  0.26949400  0.73050600  0.25000000  1
  Th  Th17  1  0.73050600  0.26949400  0.75000000  1
  Mo  Mo18  1  0.28722700  0.11512800  0.15763600  1
  Mo  Mo19  1  0.88487200  0.71277300  0.34236400  1
  Mo  Mo20  1  0.71277300  0.88487200  0.84236400  1
  Mo  Mo21  1  0.11512800  0.28722700  0.65763600  1
  Mo  Mo22  1  0.95946900  0.45742100  0.15106400  1
  Mo  Mo23  1  0.54257900  0.04053100  0.34893600  1
  Mo  Mo24  1  0.04053100  0.54257900  0.84893600  1
  Mo  Mo25  1  0.45742100  0.95946900  0.65106400  1
  Mo  Mo26  1  0.59759800  0.78392300  0.14570100  1
  Mo  Mo27  1  0.21607700  0.40240200  0.35429900  1
  Mo  Mo28  1  0.40240200  0.21607700  0.85429900  1
  Mo  Mo29  1  0.78392300  0.59759800  0.64570100  1
  O  O30  1  0.52014100  0.74860000  0.26459000  1
  O  O31  1  0.25140000  0.47985900  0.23541000  1
  O  O32  1  0.47985900  0.25140000  0.73541000  1
  O  O33  1  0.74860000  0.52014100  0.76459000  1
  O  O34  1  0.44980800  0.79768800  0.10568300  1
  O  O35  1  0.20231200  0.55019200  0.39431700  1
  O  O36  1  0.55019200  0.20231200  0.89431700  1
  O  O37  1  0.79768800  0.44980800  0.60568300  1
  O  O38  1  0.61081600  0.63777400  0.10983300  1
  O  O39  1  0.36222600  0.38918400  0.39016700  1
  O  O40  1  0.38918400  0.36222600  0.89016700  1
  O  O41  1  0.63777400  0.61081600  0.60983300  1
  O  O42  1  0.88704500  0.38557500  0.26714100  1
  O  O43  1  0.61442500  0.11295500  0.23285900  1
  O  O44  1  0.11295500  0.61442500  0.73285900  1
  O  O45  1  0.38557500  0.88704500  0.76714100  1
  O  O46  1  0.76369600  0.95088000  0.10603500  1
  O  O47  1  0.04912000  0.23630400  0.39396500  1
  O  O48  1  0.23630400  0.04912000  0.89396500  1
  O  O49  1  0.95088000  0.76369600  0.60603500  1
  O  O50  1  0.12685600  0.63594100  0.13921800  1
  O  O51  1  0.36405900  0.87314400  0.36078200  1
  O  O52  1  0.87314400  0.36405900  0.86078200  1
  O  O53  1  0.63594100  0.12685600  0.63921800  1
  O  O54  1  0.99357400  0.33133600  0.10068800  1
  O  O55  1  0.66866400  0.00642600  0.39931200  1
  O  O56  1  0.00642600  0.66866400  0.89931200  1
  O  O57  1  0.33133600  0.99357400  0.60068800  1
  O  O58  1  0.82816300  0.48004900  0.09985800  1
  O  O59  1  0.51995100  0.17183700  0.40014200  1
  O  O60  1  0.17183700  0.51995100  0.90014200  1
  O  O61  1  0.48004900  0.82816300  0.59985800  1
  O  O62  1  0.25335800  0.15594000  0.26398800  1
  O  O63  1  0.84406000  0.74664200  0.23601200  1
  O  O64  1  0.74664200  0.84406000  0.73601200  1
  O  O65  1  0.15594000  0.25335800  0.76398800  1
  O  O66  1  0.14578400  0.10159900  0.10145700  1
  O  O67  1  0.89840100  0.85421600  0.39854300  1
  O  O68  1  0.85421600  0.89840100  0.89854300  1
  O  O69  1  0.10159900  0.14578400  0.60145700  1
  O  O70  1  0.29265300  0.94297800  0.17034400  1
  O  O71  1  0.05702200  0.70734700  0.32965600  1
  O  O72  1  0.70734700  0.05702200  0.82965600  1
  O  O73  1  0.94297800  0.29265300  0.67034400  1
  O  O74  1  0.45507700  0.26424000  0.09484900  1
  O  O75  1  0.73576000  0.54492300  0.40515100  1
  O  O76  1  0.54492300  0.73576000  0.90515100  1
  O  O77  1  0.26424000  0.45507700  0.59484900  1
