# generated using pymatgen
data_B3Pd16
_symmetry_space_group_name_H-M   'P 1'
_cell_length_a   9.15363109
_cell_length_b   9.15363109
_cell_length_c   9.10412110
_cell_angle_alpha   66.71446402
_cell_angle_beta   66.71446402
_cell_angle_gamma   53.05532835
_symmetry_Int_Tables_number   1
_chemical_formula_structural   B3Pd16
_chemical_formula_sum   'B6 Pd32'
_cell_volume   546.92708670
_cell_formula_units_Z   2
loop_
 _symmetry_equiv_pos_site_id
 _symmetry_equiv_pos_as_xyz
  1  'x, y, z'
loop_
 _atom_site_type_symbol
 _atom_site_label
 _atom_site_symmetry_multiplicity
 _atom_site_fract_x
 _atom_site_fract_y
 _atom_site_fract_z
 _atom_site_occupancy
  B  B0  1  0.62492000  0.37508000  0.25000000  1
  B  B1  1  0.37508000  0.62492000  0.75000000  1
  B  B2  1  0.93534300  0.69440900  0.49955600  1
  B  B3  1  0.69440900  0.93534300  0.99955600  1
  B  B4  1  0.06465700  0.30559100  0.50044400  1
  B  B5  1  0.30559100  0.06465700  0.00044400  1
  Pd  Pd6  1  0.37049700  0.62950300  0.25000000  1
  Pd  Pd7  1  0.62950300  0.37049700  0.75000000  1
  Pd  Pd8  1  0.87957300  0.12042700  0.25000000  1
  Pd  Pd9  1  0.12042700  0.87957300  0.75000000  1
  Pd  Pd10  1  0.06500700  0.81626000  0.50005200  1
  Pd  Pd11  1  0.81626000  0.06500700  0.00005200  1
  Pd  Pd12  1  0.93499300  0.18374000  0.49994800  1
  Pd  Pd13  1  0.18374000  0.93499300  0.99994800  1
  Pd  Pd14  1  0.56231000  0.31009600  0.50564500  1
  Pd  Pd15  1  0.31009600  0.56231000  0.00564500  1
  Pd  Pd16  1  0.43769000  0.68990400  0.49435500  1
  Pd  Pd17  1  0.68990400  0.43769000  0.99435500  1
  Pd  Pd18  1  0.00166400  0.75186700  0.24487000  1
  Pd  Pd19  1  0.75186700  0.00166400  0.74487000  1
  Pd  Pd20  1  0.99833600  0.24813300  0.75513000  1
  Pd  Pd21  1  0.24813300  0.99833600  0.25513000  1
  Pd  Pd22  1  0.49855200  0.24733400  0.25015600  1
  Pd  Pd23  1  0.24733400  0.49855200  0.75015600  1
  Pd  Pd24  1  0.50144800  0.75266600  0.74984400  1
  Pd  Pd25  1  0.75266600  0.50144800  0.24984400  1
  Pd  Pd26  1  0.19453700  0.43491100  0.49998000  1
  Pd  Pd27  1  0.43491100  0.19453700  0.99998000  1
  Pd  Pd28  1  0.80546300  0.56508900  0.50002000  1
  Pd  Pd29  1  0.56508900  0.80546300  0.00002000  1
  Pd  Pd30  1  0.68083700  0.94398700  0.50037500  1
  Pd  Pd31  1  0.94398700  0.68083700  0.00037500  1
  Pd  Pd32  1  0.31916300  0.05601300  0.49962500  1
  Pd  Pd33  1  0.05601300  0.31916300  0.99962500  1
  Pd  Pd34  1  0.87401300  0.62314000  0.75457000  1
  Pd  Pd35  1  0.62314000  0.87401300  0.25457000  1
  Pd  Pd36  1  0.12598700  0.37686000  0.24543000  1
  Pd  Pd37  1  0.37686000  0.12598700  0.74543000  1
