# generated using pymatgen
data_Ba20Ru11PtO48
_symmetry_space_group_name_H-M   'P 1'
_cell_length_a   5.98756800
_cell_length_b   11.02429140
_cell_length_c   20.12045372
_cell_angle_alpha   90.30314233
_cell_angle_beta   90.00000000
_cell_angle_gamma   90.00000000
_symmetry_Int_Tables_number   1
_chemical_formula_structural   Ba20Ru11PtO48
_chemical_formula_sum   'Ba20 Ru11 Pt1 O48'
_cell_volume   1328.10629227
_cell_formula_units_Z   1
loop_
 _symmetry_equiv_pos_site_id
 _symmetry_equiv_pos_as_xyz
  1  'x, y, z'
loop_
 _atom_site_type_symbol
 _atom_site_label
 _atom_site_symmetry_multiplicity
 _atom_site_fract_x
 _atom_site_fract_y
 _atom_site_fract_z
 _atom_site_occupancy
  Ba  Ba0  1  0.75000000  0.11274100  0.96966700  1
  Ba  Ba1  1  0.75000000  0.61274000  0.53048200  1
  Ba  Ba2  1  0.25000000  0.88699500  0.03060800  1
  Ba  Ba3  1  0.25000000  0.38673700  0.46962400  1
  Ba  Ba4  1  0.75000000  0.30215300  0.75482200  1
  Ba  Ba5  1  0.75000000  0.80237100  0.74439700  1
  Ba  Ba6  1  0.25000000  0.69892200  0.24512700  1
  Ba  Ba7  1  0.25000000  0.19772700  0.25488600  1
  Ba  Ba8  1  0.75000000  0.95199000  0.17546800  1
  Ba  Ba9  1  0.75000000  0.45011300  0.32561700  1
  Ba  Ba10  1  0.25000000  0.04816600  0.82384500  1
  Ba  Ba11  1  0.25000000  0.54787700  0.67571600  1
  Ba  Ba12  1  0.75000000  0.31398700  0.13037100  1
  Ba  Ba13  1  0.75000000  0.81480600  0.37060000  1
  Ba  Ba14  1  0.25000000  0.68547600  0.86924500  1
  Ba  Ba15  1  0.25000000  0.18598900  0.63025600  1
  Ba  Ba16  1  0.75000000  0.47413600  0.92632700  1
  Ba  Ba17  1  0.75000000  0.97399700  0.57381000  1
  Ba  Ba18  1  0.25000000  0.52729000  0.07367300  1
  Ba  Ba19  1  0.25000000  0.02691100  0.42601600  1
  Ru  Ru20  1  0.75000000  0.61648900  0.17875400  1
  Ru  Ru21  1  0.75000000  0.12192400  0.32698200  1
  Ru  Ru22  1  0.25000000  0.37855700  0.82726500  1
  Ru  Ru23  1  0.25000000  0.87822700  0.67308400  1
  Ru  Ru24  1  0.75000000  0.80720800  0.92792700  1
  Ru  Ru25  1  0.75000000  0.30473400  0.56891000  1
  Ru  Ru26  1  0.25000000  0.19497400  0.06875200  1
  Ru  Ru27  1  0.25000000  0.69499600  0.43097600  1
  Ru  Ru28  1  0.75000000  0.21445300  0.44234000  1
  Ru  Ru29  1  0.25000000  0.28529800  0.94210300  1
  Ru  Ru30  1  0.25000000  0.78564000  0.55771700  1
  Pt  Pt31  1  0.75000000  0.71660100  0.05525600  1
  O  O32  1  0.97827900  0.69335200  0.98119700  1
  O  O33  1  0.52386800  0.19279600  0.51618700  1
  O  O34  1  0.47458200  0.30742900  0.01605800  1
  O  O35  1  0.02434600  0.80714000  0.48402400  1
  O  O36  1  0.02541800  0.30742900  0.01605800  1
  O  O37  1  0.47565400  0.80714000  0.48402400  1
  O  O38  1  0.52172100  0.69335200  0.98119700  1
  O  O39  1  0.97613200  0.19279600  0.51618700  1
  O  O40  1  0.75000000  0.89172300  0.02263100  1
  O  O41  1  0.75000000  0.38785600  0.47543600  1
  O  O42  1  0.25000000  0.11150900  0.97533800  1
  O  O43  1  0.25000000  0.61238600  0.52444300  1
  O  O44  1  0.98285900  0.73677700  0.13037400  1
  O  O45  1  0.51195800  0.23964800  0.37045000  1
  O  O46  1  0.48655900  0.26002600  0.87058900  1
  O  O47  1  0.01219100  0.76028900  0.62931700  1
  O  O48  1  0.01344100  0.26002600  0.87058900  1
  O  O49  1  0.48780900  0.76028900  0.62931700  1
  O  O50  1  0.51714100  0.73677700  0.13037400  1
  O  O51  1  0.98804200  0.23964800  0.37045000  1
  O  O52  1  0.75000000  0.69053400  0.85838800  1
  O  O53  1  0.75000000  0.19141600  0.64005900  1
  O  O54  1  0.25000000  0.30893400  0.14017400  1
  O  O55  1  0.25000000  0.80849300  0.35994900  1
  O  O56  1  0.51579100  0.90654500  0.89585600  1
  O  O57  1  0.98240400  0.40506700  0.60318300  1
  O  O58  1  0.01754700  0.09553200  0.10316000  1
  O  O59  1  0.48236400  0.59493000  0.39677000  1
  O  O60  1  0.48245300  0.09553200  0.10316000  1
  O  O61  1  0.01763600  0.59493000  0.39677000  1
  O  O62  1  0.98420900  0.90654500  0.89585600  1
  O  O63  1  0.51759600  0.40506700  0.60318300  1
  O  O64  1  0.75000000  0.53958400  0.08328500  1
  O  O65  1  0.75000000  0.03704900  0.41939100  1
  O  O66  1  0.25000000  0.46380900  0.91947300  1
  O  O67  1  0.25000000  0.96311300  0.58061100  1
  O  O68  1  0.75000000  0.72096700  0.25443100  1
  O  O69  1  0.75000000  0.21908600  0.24762000  1
  O  O70  1  0.25000000  0.28049800  0.74768000  1
  O  O71  1  0.25000000  0.78091600  0.75227600  1
  O  O72  1  0.51775800  0.51284800  0.20851900  1
  O  O73  1  0.97760700  0.01627000  0.29317800  1
  O  O74  1  0.02284900  0.48357900  0.79339100  1
  O  O75  1  0.47767600  0.98372300  0.70684400  1
  O  O76  1  0.47715100  0.48357900  0.79339100  1
  O  O77  1  0.02232400  0.98372300  0.70684400  1
  O  O78  1  0.98224200  0.51284800  0.20851900  1
  O  O79  1  0.52239300  0.01627000  0.29317800  1
