# generated using pymatgen
data_Th2Si3Ru
_symmetry_space_group_name_H-M   'P 1'
_cell_length_a   7.79372182
_cell_length_b   7.79372182
_cell_length_c   7.79372182
_cell_angle_alpha   149.69740095
_cell_angle_beta   148.72777724
_cell_angle_gamma   44.10354342
_symmetry_Int_Tables_number   1
_chemical_formula_structural   Th2Si3Ru
_chemical_formula_sum   'Th2 Si3 Ru1'
_cell_volume   123.63959601
_cell_formula_units_Z   1
loop_
 _symmetry_equiv_pos_site_id
 _symmetry_equiv_pos_as_xyz
  1  'x, y, z'
loop_
 _atom_site_type_symbol
 _atom_site_label
 _atom_site_symmetry_multiplicity
 _atom_site_fract_x
 _atom_site_fract_y
 _atom_site_fract_z
 _atom_site_occupancy
  Th  Th0  1  0.74747900  0.24747900  0.50000000  1
  Th  Th1  1  0.00166100  0.00166100  0.00000000  1
  Si  Si2  1  0.58288300  0.58288300  0.00000000  1
  Si  Si3  1  0.33166100  0.83166100  0.50000000  1
  Si  Si4  1  0.41865500  0.41865500  0.00000000  1
  Ru  Ru5  1  0.16766100  0.66766100  0.50000000  1
