# generated using pymatgen
data_Na2CaV4O12
_symmetry_space_group_name_H-M   'P 1'
_cell_length_a   10.55097200
_cell_length_b   10.55097200
_cell_length_c   5.05984900
_cell_angle_alpha   90.00000000
_cell_angle_beta   90.00000000
_cell_angle_gamma   90.00000000
_symmetry_Int_Tables_number   1
_chemical_formula_structural   Na2CaV4O12
_chemical_formula_sum   'Na4 Ca2 V8 O24'
_cell_volume   563.27762156
_cell_formula_units_Z   2
loop_
 _symmetry_equiv_pos_site_id
 _symmetry_equiv_pos_as_xyz
  1  'x, y, z'
loop_
 _atom_site_type_symbol
 _atom_site_label
 _atom_site_symmetry_multiplicity
 _atom_site_fract_x
 _atom_site_fract_y
 _atom_site_fract_z
 _atom_site_occupancy
  Na  Na0  1  0.75000000  0.75000000  0.50000000  1
  Na  Na1  1  0.75000000  0.25000000  0.50000000  1
  Na  Na2  1  0.25000000  0.75000000  0.50000000  1
  Na  Na3  1  0.25000000  0.25000000  0.50000000  1
  Ca  Ca4  1  0.00000000  0.00000000  0.50000000  1
  Ca  Ca5  1  0.50000000  0.50000000  0.50000000  1
  V  V6  1  0.27669500  0.00000000  0.00000000  1
  V  V7  1  0.00000000  0.27669500  0.00000000  1
  V  V8  1  0.72330500  0.00000000  0.00000000  1
  V  V9  1  0.00000000  0.72330500  0.00000000  1
  V  V10  1  0.50000000  0.22330500  0.00000000  1
  V  V11  1  0.22330500  0.50000000  0.00000000  1
  V  V12  1  0.77669500  0.50000000  0.00000000  1
  V  V13  1  0.50000000  0.77669500  0.00000000  1
  O  O14  1  0.43468400  0.31059400  0.24253000  1
  O  O15  1  0.56531600  0.68940600  0.24253000  1
  O  O16  1  0.68940600  0.43468400  0.24253000  1
  O  O17  1  0.31059400  0.56531600  0.24253000  1
  O  O18  1  0.31059400  0.43468400  0.75747000  1
  O  O19  1  0.43468400  0.68940600  0.75747000  1
  O  O20  1  0.56531600  0.31059400  0.75747000  1
  O  O21  1  0.68940600  0.56531600  0.75747000  1
  O  O22  1  0.06531600  0.18940600  0.75747000  1
  O  O23  1  0.93468400  0.81059400  0.75747000  1
  O  O24  1  0.81059400  0.06531600  0.75747000  1
  O  O25  1  0.18940600  0.93468400  0.75747000  1
  O  O26  1  0.18940600  0.06531600  0.24253000  1
  O  O27  1  0.06531600  0.81059400  0.24253000  1
  O  O28  1  0.12168000  0.37832000  0.14603000  1
  O  O29  1  0.37832000  0.87832000  0.14603000  1
  O  O30  1  0.62168000  0.12168000  0.14603000  1
  O  O31  1  0.87832000  0.62168000  0.14603000  1
  O  O32  1  0.87832000  0.37832000  0.85397000  1
  O  O33  1  0.12168000  0.62168000  0.85397000  1
  O  O34  1  0.37832000  0.12168000  0.85397000  1
  O  O35  1  0.62168000  0.87832000  0.85397000  1
  O  O36  1  0.81059400  0.93468400  0.24253000  1
  O  O37  1  0.93468400  0.18940600  0.24253000  1
