# generated using pymatgen
data_Gd3CI3
_symmetry_space_group_name_H-M   'P 1'
_cell_length_a   3.95161500
_cell_length_b   8.78355575
_cell_length_c   11.89346617
_cell_angle_alpha   92.21471854
_cell_angle_beta   90.00000000
_cell_angle_gamma   90.00000000
_symmetry_Int_Tables_number   1
_chemical_formula_structural   Gd3CI3
_chemical_formula_sum   'Gd6 C2 I6'
_cell_volume   412.50469841
_cell_formula_units_Z   2
loop_
 _symmetry_equiv_pos_site_id
 _symmetry_equiv_pos_as_xyz
  1  'x, y, z'
loop_
 _atom_site_type_symbol
 _atom_site_label
 _atom_site_symmetry_multiplicity
 _atom_site_fract_x
 _atom_site_fract_y
 _atom_site_fract_z
 _atom_site_occupancy
  Gd  Gd0  1  0.25000000  0.91803300  0.59992700  1
  Gd  Gd1  1  0.75000000  0.08196700  0.40007300  1
  Gd  Gd2  1  0.25000000  0.88508300  0.18040200  1
  Gd  Gd3  1  0.75000000  0.11491700  0.81959800  1
  Gd  Gd4  1  0.25000000  0.29713400  0.61665900  1
  Gd  Gd5  1  0.75000000  0.70286600  0.38334100  1
  C  C6  1  0.25000000  0.87984900  0.38336800  1
  C  C7  1  0.75000000  0.12015100  0.61663200  1
  I  I8  1  0.25000000  0.85444600  0.87653200  1
  I  I9  1  0.75000000  0.14555400  0.12346800  1
  I  I10  1  0.25000000  0.38057500  0.87566000  1
  I  I11  1  0.75000000  0.61942500  0.12434000  1
  I  I12  1  0.25000000  0.38309700  0.36453200  1
  I  I13  1  0.75000000  0.61690300  0.63546800  1
