# generated using pymatgen
data_GdZnPd
_symmetry_space_group_name_H-M   'P 1'
_cell_length_a   3.92570500
_cell_length_b   7.36216979
_cell_length_c   7.35877973
_cell_angle_alpha   120.01524465
_cell_angle_beta   90.00000000
_cell_angle_gamma   90.00000000
_symmetry_Int_Tables_number   1
_chemical_formula_structural   GdZnPd
_chemical_formula_sum   'Gd3 Zn3 Pd3'
_cell_volume   184.15910290
_cell_formula_units_Z   3
loop_
 _symmetry_equiv_pos_site_id
 _symmetry_equiv_pos_as_xyz
  1  'x, y, z'
loop_
 _atom_site_type_symbol
 _atom_site_label
 _atom_site_symmetry_multiplicity
 _atom_site_fract_x
 _atom_site_fract_y
 _atom_site_fract_z
 _atom_site_occupancy
  Gd  Gd0  1  0.50000000  0.59659400  0.00000000  1
  Gd  Gd1  1  0.50000000  0.40311300  0.40296200  1
  Gd  Gd2  1  0.50000000  0.00015100  0.59703800  1
  Zn  Zn3  1  0.00000000  0.25043500  0.00000000  1
  Zn  Zn4  1  0.00000000  0.74915900  0.74862700  1
  Zn  Zn5  1  0.00000000  0.00053300  0.25137300  1
  Pd  Pd6  1  0.00000000  0.33273100  0.66537800  1
  Pd  Pd7  1  0.00000000  0.66735300  0.33462200  1
  Pd  Pd8  1  0.50000000  0.99983100  0.00000000  1
