# generated using pymatgen
data_Sr2Mn2O5
_symmetry_space_group_name_H-M   'P 1'
_cell_length_a   3.84968994
_cell_length_b   5.63337551
_cell_length_c   11.05635562
_cell_angle_alpha   90.00000000
_cell_angle_beta   90.00000000
_cell_angle_gamma   90.00000000
_symmetry_Int_Tables_number   1
_chemical_formula_structural   Sr2Mn2O5
_chemical_formula_sum   'Sr4 Mn4 O10'
_cell_volume   239.77640951
_cell_formula_units_Z   2
loop_
 _symmetry_equiv_pos_site_id
 _symmetry_equiv_pos_as_xyz
  1  'x, y, z'
loop_
 _atom_site_type_symbol
 _atom_site_label
 _atom_site_symmetry_multiplicity
 _atom_site_fract_x
 _atom_site_fract_y
 _atom_site_fract_z
 _atom_site_occupancy
  O  O0  1  0.49999899  0.49999955  0.49999959  1
  O  O1  1  0.49999899  0.00000000  0.00000000  1
  O  O2  1  0.49999899  0.97298476  0.73050674  1
  O  O3  1  0.49999899  0.02701612  0.26949334  1
  O  O4  1  0.49999899  0.47298342  0.76949293  1
  O  O5  1  0.49999899  0.52701567  0.23050715  1
  O  O6  1  0.00000000  0.20162348  0.59792781  1
  O  O7  1  0.00000000  0.79837561  0.40207228  1
  O  O8  1  0.00000000  0.29837606  0.09792822  1
  O  O9  1  0.00000000  0.70162303  0.90207186  1
  Mn  Mn10  1  0.49999899  0.24277301  0.62383649  1
  Mn  Mn11  1  0.49999899  0.75722787  0.37616359  1
  Mn  Mn12  1  0.49999899  0.74277256  0.87616318  1
  Mn  Mn13  1  0.49999899  0.25722653  0.12383690  1
  Sr  Sr14  1  0.00000000  0.21758501  0.86684414  1
  Sr  Sr15  1  0.00000000  0.78241408  0.13315594  1
  Sr  Sr16  1  0.00000000  0.71758634  0.63315553  1
  Sr  Sr17  1  0.00000000  0.28241454  0.36684455  1
