# generated using pymatgen
data_TiTlPS5
_symmetry_space_group_name_H-M   'P 1'
_cell_length_a   6.76725876
_cell_length_b   7.12507076
_cell_length_c   9.82685517
_cell_angle_alpha   111.15035327
_cell_angle_beta   100.55542269
_cell_angle_gamma   90.13700458
_symmetry_Int_Tables_number   1
_chemical_formula_structural   TiTlPS5
_chemical_formula_sum   'Ti2 Tl2 P2 S10'
_cell_volume   433.21358315
_cell_formula_units_Z   2
loop_
 _symmetry_equiv_pos_site_id
 _symmetry_equiv_pos_as_xyz
  1  'x, y, z'
loop_
 _atom_site_type_symbol
 _atom_site_label
 _atom_site_symmetry_multiplicity
 _atom_site_fract_x
 _atom_site_fract_y
 _atom_site_fract_z
 _atom_site_occupancy
  Ti  Ti0  1  0.49999857  0.27631347  0.00006122  1
  Ti  Ti1  1  0.50000143  0.72368653  0.99993878  1
  Tl  Tl2  1  0.72209561  0.71377342  0.42795359  1
  Tl  Tl3  1  0.27790439  0.28622658  0.57204641  1
  P  P4  1  0.28054214  0.86832801  0.73639149  1
  P  P5  1  0.71945786  0.13167199  0.26360851  1
  S  S6  1  0.17405398  0.68195616  0.83097974  1
  S  S7  1  0.34730706  0.56094624  0.12307477  1
  S  S8  1  0.41319344  0.08280456  0.16682716  1
  S  S9  1  0.58680656  0.91719544  0.83317284  1
  S  S10  1  0.17403452  0.14833130  0.83108988  1
  S  S11  1  0.77714192  0.24189242  0.48502978  1
  S  S12  1  0.65269294  0.43905376  0.87692523  1
  S  S13  1  0.22285808  0.75810758  0.51497022  1
  S  S14  1  0.82596548  0.85166870  0.16891012  1
  S  S15  1  0.82594602  0.31804384  0.16902026  1
