# generated using pymatgen
data_Na4CaFe4(PO4)6
_symmetry_space_group_name_H-M   'P 1'
_cell_length_a   8.83494410
_cell_length_b   8.83494410
_cell_length_c   6.49031426
_cell_angle_alpha   73.61996429
_cell_angle_beta   73.61996429
_cell_angle_gamma   91.49461666
_symmetry_Int_Tables_number   1
_chemical_formula_structural   Na4CaFe4(PO4)6
_chemical_formula_sum   'Na4 Ca1 Fe4 P6 O24'
_cell_volume   463.24028920
_cell_formula_units_Z   1
loop_
 _symmetry_equiv_pos_site_id
 _symmetry_equiv_pos_as_xyz
  1  'x, y, z'
loop_
 _atom_site_type_symbol
 _atom_site_label
 _atom_site_symmetry_multiplicity
 _atom_site_fract_x
 _atom_site_fract_y
 _atom_site_fract_z
 _atom_site_occupancy
  Na  Na0  1  0.50308200  0.49653700  0.24716800  1
  Na  Na1  1  0.50346300  0.49691800  0.75283200  1
  Na  Na2  1  0.00620300  0.99379700  0.00000000  1
  Na  Na3  1  0.73278600  0.26721400  0.00000000  1
  Ca  Ca4  1  0.26286800  0.73713200  0.50000000  1
  Fe  Fe5  1  0.92791900  0.61598900  0.39202700  1
  Fe  Fe6  1  0.38401100  0.07208100  0.60797300  1
  Fe  Fe7  1  0.06476300  0.37563700  0.11521300  1
  Fe  Fe8  1  0.62436300  0.93523700  0.88478700  1
  P  P9  1  0.27631900  0.72368100  0.00000000  1
  P  P10  1  0.72552500  0.27447500  0.50000000  1
  P  P11  1  0.65119500  0.85741500  0.38315900  1
  P  P12  1  0.14258500  0.34880500  0.61684100  1
  P  P13  1  0.34935300  0.14397900  0.11543400  1
  P  P14  1  0.85602100  0.65064700  0.88456600  1
  O  O15  1  0.15038700  0.74379000  0.21157100  1
  O  O16  1  0.25621000  0.84961300  0.78842900  1
  O  O17  1  0.84802600  0.25822600  0.28587600  1
  O  O18  1  0.74177400  0.15197400  0.71412400  1
  O  O19  1  0.53383200  0.71123100  0.43620200  1
  O  O20  1  0.28876900  0.46616800  0.56379800  1
  O  O21  1  0.46154200  0.28935800  0.06970000  1
  O  O22  1  0.71064200  0.53845800  0.93030000  1
  O  O23  1  0.25302100  0.55613500  0.97372600  1
  O  O24  1  0.44386500  0.74697900  0.02627400  1
  O  O25  1  0.74611500  0.44529100  0.52096200  1
  O  O26  1  0.55470900  0.25388500  0.47903800  1
  O  O27  1  0.82196600  0.81183800  0.36751800  1
  O  O28  1  0.18816200  0.17803400  0.63248200  1
  O  O29  1  0.17733400  0.18435700  0.12527600  1
  O  O30  1  0.81564300  0.82266600  0.87472400  1
  O  O31  1  0.66054800  0.98189500  0.15498600  1
  O  O32  1  0.01810500  0.33945200  0.84501400  1
  O  O33  1  0.34214600  0.01697900  0.34449500  1
  O  O34  1  0.98302100  0.65785400  0.65550500  1
  O  O35  1  0.59164700  0.93858300  0.57577900  1
  O  O36  1  0.06141700  0.40835300  0.42422100  1
  O  O37  1  0.40711400  0.05944900  0.92533200  1
  O  O38  1  0.94055100  0.59288600  0.07466800  1
