# generated using pymatgen
data_AlP2H18(C2Cl)3
_symmetry_space_group_name_H-M   'P 1'
_cell_length_a   10.48316400
_cell_length_b   11.22512100
_cell_length_c   14.33120600
_cell_angle_alpha   90.00000000
_cell_angle_beta   90.00000000
_cell_angle_gamma   90.00000000
_symmetry_Int_Tables_number   1
_chemical_formula_structural   AlP2H18(C2Cl)3
_chemical_formula_sum   'Al4 P8 H72 C24 Cl12'
_cell_volume   1686.42157571
_cell_formula_units_Z   4
loop_
 _symmetry_equiv_pos_site_id
 _symmetry_equiv_pos_as_xyz
  1  'x, y, z'
loop_
 _atom_site_type_symbol
 _atom_site_label
 _atom_site_symmetry_multiplicity
 _atom_site_fract_x
 _atom_site_fract_y
 _atom_site_fract_z
 _atom_site_occupancy
  Al  Al0  1  0.21544000  0.25000000  0.97858900  1
  Al  Al1  1  0.71544000  0.25000000  0.52141100  1
  Al  Al2  1  0.78456000  0.75000000  0.02141100  1
  Al  Al3  1  0.28456000  0.75000000  0.47858900  1
  P  P4  1  0.02191400  0.25000000  0.87228600  1
  P  P5  1  0.52191400  0.25000000  0.62771400  1
  P  P6  1  0.97808600  0.75000000  0.12771400  1
  P  P7  1  0.47808600  0.75000000  0.37228600  1
  P  P8  1  0.40299600  0.25000000  0.09108200  1
  P  P9  1  0.90299600  0.25000000  0.40891800  1
  P  P10  1  0.59700400  0.75000000  0.90891800  1
  P  P11  1  0.09700400  0.75000000  0.59108200  1
  H  H12  1  0.84095000  0.37707600  0.83179500  1
  H  H13  1  0.34095000  0.12292400  0.66820500  1
  H  H14  1  0.15905000  0.87707600  0.16820500  1
  H  H15  1  0.65905000  0.62292400  0.33179500  1
  H  H16  1  0.15905000  0.62292400  0.16820500  1
  H  H17  1  0.65905000  0.87707600  0.33179500  1
  H  H18  1  0.84095000  0.12292400  0.83179500  1
  H  H19  1  0.34095000  0.37707600  0.66820500  1
  H  H20  1  0.87248800  0.37816300  0.95480900  1
  H  H21  1  0.37248800  0.12183700  0.54519100  1
  H  H22  1  0.12751200  0.87816300  0.04519100  1
  H  H23  1  0.62751200  0.62183700  0.45480900  1
  H  H24  1  0.12751200  0.62183700  0.04519100  1
  H  H25  1  0.62751200  0.87816300  0.45480900  1
  H  H26  1  0.87248800  0.12183700  0.95480900  1
  H  H27  1  0.37248800  0.37816300  0.54519100  1
  H  H28  1  0.97132400  0.46108700  0.87774600  1
  H  H29  1  0.47132400  0.03891300  0.62225400  1
  H  H30  1  0.02867600  0.96108700  0.12225400  1
  H  H31  1  0.52867600  0.53891300  0.37774600  1
  H  H32  1  0.02867600  0.53891300  0.12225400  1
  H  H33  1  0.52867600  0.96108700  0.37774600  1
  H  H34  1  0.97132400  0.03891300  0.87774600  1
  H  H35  1  0.47132400  0.46108700  0.62225400  1
  H  H36  1  0.11457400  0.17046500  0.73036500  1
  H  H37  1  0.61457400  0.32953500  0.76963500  1
  H  H38  1  0.88542600  0.67046500  0.26963500  1
  H  H39  1  0.38542600  0.82953500  0.23036500  1
  H  H40  1  0.88542600  0.82953500  0.26963500  1
  H  H41  1  0.38542600  0.67046500  0.23036500  1
  H  H42  1  0.11457400  0.32953500  0.73036500  1
  H  H43  1  0.61457400  0.17046500  0.76963500  1
  H  H44  1  0.97022500  0.25000000  0.70591700  1
  H  H45  1  0.47022500  0.25000000  0.79408300  1
  H  H46  1  0.02977500  0.75000000  0.29408300  1
  H  H47  1  0.52977500  0.75000000  0.20591700  1
  H  H48  1  0.31945300  0.11833800  0.21095900  1
  H  H49  1  0.81945300  0.38166200  0.28904100  1
  H  H50  1  0.68054700  0.61833800  0.78904100  1
  H  H51  1  0.18054700  0.88166200  0.71095900  1
  H  H52  1  0.68054700  0.88166200  0.78904100  1
  H  H53  1  0.18054700  0.61833800  0.71095900  1
  H  H54  1  0.31945300  0.38166200  0.21095900  1
  H  H55  1  0.81945300  0.11833800  0.28904100  1
  H  H56  1  0.41526000  0.03995100  0.12816200  1
  H  H57  1  0.91526000  0.46004900  0.37183800  1
  H  H58  1  0.58474000  0.53995100  0.87183800  1
  H  H59  1  0.08474000  0.96004900  0.62816200  1
  H  H60  1  0.58474000  0.96004900  0.87183800  1
  H  H61  1  0.08474000  0.53995100  0.62816200  1
  H  H62  1  0.41526000  0.46004900  0.12816200  1
  H  H63  1  0.91526000  0.03995100  0.37183800  1
  H  H64  1  0.48994000  0.12735400  0.21703200  1
  H  H65  1  0.98994000  0.37264600  0.28296800  1
  H  H66  1  0.51006000  0.62735400  0.78296800  1
  H  H67  1  0.01006000  0.87264600  0.71703200  1
  H  H68  1  0.51006000  0.87264600  0.78296800  1
  H  H69  1  0.01006000  0.62735400  0.71703200  1
  H  H70  1  0.48994000  0.37264600  0.21703200  1
  H  H71  1  0.98994000  0.12735400  0.28296800  1
  H  H72  1  0.57433300  0.17033100  0.99578500  1
  H  H73  1  0.07433300  0.32966900  0.50421500  1
  H  H74  1  0.42566700  0.67033100  0.00421500  1
  H  H75  1  0.92566700  0.82966900  0.49578500  1
  H  H76  1  0.42566700  0.82966900  0.00421500  1
  H  H77  1  0.92566700  0.67033100  0.49578500  1
  H  H78  1  0.57433300  0.32966900  0.99578500  1
  H  H79  1  0.07433300  0.17033100  0.50421500  1
  H  H80  1  0.63594500  0.25000000  0.09392900  1
  H  H81  1  0.13594500  0.25000000  0.40607100  1
  H  H82  1  0.36405500  0.75000000  0.90607100  1
  H  H83  1  0.86405500  0.75000000  0.59392900  1
  C  C84  1  0.91622400  0.37854200  0.88520600  1
  C  C85  1  0.41622400  0.12145800  0.61479400  1
  C  C86  1  0.08377600  0.87854200  0.11479400  1
  C  C87  1  0.58377600  0.62145800  0.38520600  1
  C  C88  1  0.08377600  0.62145800  0.11479400  1
  C  C89  1  0.58377600  0.87854200  0.38520600  1
  C  C90  1  0.91622400  0.12145800  0.88520600  1
  C  C91  1  0.41622400  0.37854200  0.61479400  1
  C  C92  1  0.05829100  0.25000000  0.74744200  1
  C  C93  1  0.55829100  0.25000000  0.75255800  1
  C  C94  1  0.94170900  0.75000000  0.25255800  1
  C  C95  1  0.44170900  0.75000000  0.24744200  1
  C  C96  1  0.40776000  0.12167400  0.16968000  1
  C  C97  1  0.90776000  0.37832600  0.33032000  1
  C  C98  1  0.59224000  0.62167400  0.83032000  1
  C  C99  1  0.09224000  0.87832600  0.66968000  1
  C  C100  1  0.59224000  0.87832600  0.83032000  1
  C  C101  1  0.09224000  0.62167400  0.66968000  1
  C  C102  1  0.40776000  0.37832600  0.16968000  1
  C  C103  1  0.90776000  0.12167400  0.33032000  1
  C  C104  1  0.56240700  0.25000000  0.03922000  1
  C  C105  1  0.06240700  0.25000000  0.46078000  1
  C  C106  1  0.43759300  0.75000000  0.96078000  1
  C  C107  1  0.93759300  0.75000000  0.53922000  1
  Cl  Cl108  1  0.28122100  0.08179700  0.91590900  1
  Cl  Cl109  1  0.78122100  0.41820300  0.58409100  1
  Cl  Cl110  1  0.71877900  0.58179700  0.08409100  1
  Cl  Cl111  1  0.21877900  0.91820300  0.41590900  1
  Cl  Cl112  1  0.71877900  0.91820300  0.08409100  1
  Cl  Cl113  1  0.21877900  0.58179700  0.41590900  1
  Cl  Cl114  1  0.28122100  0.41820300  0.91590900  1
  Cl  Cl115  1  0.78122100  0.08179700  0.58409100  1
  Cl  Cl116  1  0.08752000  0.25000000  0.10042200  1
  Cl  Cl117  1  0.58751900  0.25000000  0.39957800  1
  Cl  Cl118  1  0.91248100  0.75000000  0.89957800  1
  Cl  Cl119  1  0.41248100  0.75000000  0.60042200  1
