# generated using pymatgen
data_Na2Sr(Ge4O9)2
_symmetry_space_group_name_H-M   'P 1'
_cell_length_a   11.59567474
_cell_length_b   11.59567474
_cell_length_c   19.60863932
_cell_angle_alpha   90.00000000
_cell_angle_beta   90.00000000
_cell_angle_gamma   120.00000009
_symmetry_Int_Tables_number   1
_chemical_formula_structural   Na2Sr(Ge4O9)2
_chemical_formula_sum   'Na12 Sr6 Ge48 O108'
_cell_volume   2283.33765570
_cell_formula_units_Z   6
loop_
 _symmetry_equiv_pos_site_id
 _symmetry_equiv_pos_as_xyz
  1  'x, y, z'
loop_
 _atom_site_type_symbol
 _atom_site_label
 _atom_site_symmetry_multiplicity
 _atom_site_fract_x
 _atom_site_fract_y
 _atom_site_fract_z
 _atom_site_occupancy
  Na  Na0  1  0.99315193  0.33026991  0.96266532  1
  Na  Na1  1  0.00684807  0.66973009  0.03733468  1
  Na  Na2  1  0.33711799  0.00684807  0.96266532  1
  Na  Na3  1  0.66288201  0.66973009  0.53733468  1
  Na  Na4  1  0.66288201  0.99315193  0.03733468  1
  Na  Na5  1  0.33711799  0.33026991  0.46266532  1
  Na  Na6  1  0.66973009  0.66288201  0.96266532  1
  Na  Na7  1  0.33026991  0.99315193  0.53733468  1
  Na  Na8  1  0.33026991  0.33711799  0.03733468  1
  Na  Na9  1  0.66973009  0.00684807  0.46266532  1
  Na  Na10  1  0.00684807  0.33711799  0.53733468  1
  Na  Na11  1  0.99315193  0.66288201  0.46266532  1
  Sr  Sr12  1  0.66568246  0.66568246  0.75000000  1
  Sr  Sr13  1  0.33431754  0.33431754  0.25000000  1
  Sr  Sr14  1  0.00000000  0.33431754  0.75000000  1
  Sr  Sr15  1  -0.00000000  0.66568246  0.25000000  1
  Sr  Sr16  1  0.33431754  0.00000000  0.75000000  1
  Sr  Sr17  1  0.66568246  -0.00000000  0.25000000  1
  Ge  Ge18  1  0.66666700  0.33333300  0.97708578  1
  Ge  Ge19  1  0.33333300  0.66666700  0.02291422  1
  Ge  Ge20  1  0.33333300  0.66666700  0.52291422  1
  Ge  Ge21  1  0.66666700  0.33333300  0.47708578  1
  Ge  Ge22  1  0.66666700  0.33333300  0.72701599  1
  Ge  Ge23  1  0.33333300  0.66666700  0.27298401  1
  Ge  Ge24  1  0.33333300  0.66666700  0.77298401  1
  Ge  Ge25  1  0.66666700  0.33333300  0.22701599  1
  Ge  Ge26  1  -0.00000000  -0.00000000  0.00000000  1
  Ge  Ge27  1  -0.00000000  -0.00000000  0.50000000  1
  Ge  Ge28  1  0.82737616  0.00503053  0.87339943  1
  Ge  Ge29  1  0.17262384  0.99496947  0.12660057  1
  Ge  Ge30  1  0.17765437  0.17262384  0.87339943  1
  Ge  Ge31  1  0.82234563  0.99496947  0.62660057  1
  Ge  Ge32  1  0.82234563  0.82737616  0.12660057  1
  Ge  Ge33  1  0.17765437  0.00503053  0.37339943  1
  Ge  Ge34  1  0.99496947  0.82234563  0.87339943  1
  Ge  Ge35  1  0.00503053  0.82737616  0.62660057  1
  Ge  Ge36  1  0.00503053  0.17765437  0.12660057  1
  Ge  Ge37  1  0.99496947  0.17262384  0.37339943  1
  Ge  Ge38  1  0.17262384  0.17765437  0.62660057  1
  Ge  Ge39  1  0.82737616  0.82234563  0.37339943  1
  Ge  Ge40  1  0.66098044  0.14723185  0.85047086  1
  Ge  Ge41  1  0.33901956  0.85276815  0.14952914  1
  Ge  Ge42  1  0.48625141  0.33901956  0.85047086  1
  Ge  Ge43  1  0.51374859  0.85276815  0.64952914  1
  Ge  Ge44  1  0.51374859  0.66098044  0.14952914  1
  Ge  Ge45  1  0.48625141  0.14723185  0.35047086  1
  Ge  Ge46  1  0.85276815  0.51374859  0.85047086  1
  Ge  Ge47  1  0.14723185  0.66098044  0.64952914  1
  Ge  Ge48  1  0.14723185  0.48625141  0.14952914  1
  Ge  Ge49  1  0.85276815  0.33901956  0.35047086  1
  Ge  Ge50  1  0.33901956  0.48625141  0.64952914  1
  Ge  Ge51  1  0.66098044  0.51374859  0.35047086  1
  Ge  Ge52  1  0.51023179  0.84544584  0.89333674  1
  Ge  Ge53  1  0.48976821  0.15455416  0.10666326  1
  Ge  Ge54  1  0.33521405  0.48976821  0.89333674  1
  Ge  Ge55  1  0.66478595  0.15455416  0.60666326  1
  Ge  Ge56  1  0.66478595  0.51023179  0.10666326  1
  Ge  Ge57  1  0.33521405  0.84544584  0.39333674  1
  Ge  Ge58  1  0.15455416  0.66478595  0.89333674  1
  Ge  Ge59  1  0.84544584  0.51023179  0.60666326  1
  Ge  Ge60  1  0.84544584  0.33521405  0.10666326  1
  Ge  Ge61  1  0.15455416  0.48976821  0.39333674  1
  Ge  Ge62  1  0.48976821  0.33521405  0.60666326  1
  Ge  Ge63  1  0.51023179  0.66478595  0.39333674  1
  Ge  Ge64  1  -0.00000000  -0.00000000  0.75000000  1
  Ge  Ge65  1  -0.00000000  -0.00000000  0.25000000  1
  O  O66  1  0.73612161  0.24558051  0.92250880  1
  O  O67  1  0.26387839  0.75441949  0.07749120  1
  O  O68  1  0.50945890  0.26387839  0.92250880  1
  O  O69  1  0.49054110  0.75441949  0.57749120  1
  O  O70  1  0.49054110  0.73612161  0.07749120  1
  O  O71  1  0.50945890  0.24558051  0.42250880  1
  O  O72  1  0.75441949  0.49054110  0.92250880  1
  O  O73  1  0.24558051  0.73612161  0.57749120  1
  O  O74  1  0.24558051  0.50945890  0.07749120  1
  O  O75  1  0.75441949  0.26387839  0.42250880  1
  O  O76  1  0.26387839  0.50945890  0.57749120  1
  O  O77  1  0.73612161  0.49054110  0.42250880  1
  O  O78  1  0.67763905  0.89568577  0.92050126  1
  O  O79  1  0.32236095  0.10431423  0.07949874  1
  O  O80  1  0.21804671  0.32236095  0.92050126  1
  O  O81  1  0.78195329  0.10431423  0.57949874  1
  O  O82  1  0.78195329  0.67763905  0.07949874  1
  O  O83  1  0.21804671  0.89568577  0.42050126  1
  O  O84  1  0.10431423  0.78195329  0.92050126  1
  O  O85  1  0.89568577  0.67763905  0.57949874  1
  O  O86  1  0.89568577  0.21804671  0.07949874  1
  O  O87  1  0.10431423  0.32236095  0.42050126  1
  O  O88  1  0.32236095  0.21804671  0.57949874  1
  O  O89  1  0.67763905  0.78195329  0.42050126  1
  O  O90  1  0.81960907  0.40149323  0.78231872  1
  O  O91  1  0.18039093  0.59850677  0.21768128  1
  O  O92  1  0.58188416  0.18039093  0.78231872  1
  O  O93  1  0.41811584  0.59850677  0.71768128  1
  O  O94  1  0.41811584  0.81960907  0.21768128  1
  O  O95  1  0.58188416  0.40149323  0.28231872  1
  O  O96  1  0.59850677  0.41811584  0.78231872  1
  O  O97  1  0.40149323  0.81960907  0.71768128  1
  O  O98  1  0.40149323  0.58188416  0.21768128  1
  O  O99  1  0.59850677  0.18039093  0.28231872  1
  O  O100  1  0.18039093  0.58188416  0.71768128  1
  O  O101  1  0.81960907  0.41811584  0.28231872  1
  O  O102  1  0.93874668  0.09331448  0.94100934  1
  O  O103  1  0.06125332  0.90668552  0.05899066  1
  O  O104  1  0.15456780  0.06125332  0.94100934  1
  O  O105  1  0.84543220  0.90668552  0.55899066  1
  O  O106  1  0.84543220  0.93874668  0.05899066  1
  O  O107  1  0.15456780  0.09331448  0.44100934  1
  O  O108  1  0.90668552  0.84543220  0.94100934  1
  O  O109  1  0.09331448  0.93874668  0.55899066  1
  O  O110  1  0.09331448  0.15456780  0.05899066  1
  O  O111  1  0.90668552  0.06125332  0.44100934  1
  O  O112  1  0.06125332  0.15456780  0.55899066  1
  O  O113  1  0.93874668  0.84543220  0.44100934  1
  O  O114  1  0.79622192  0.12126606  0.82512221  1
  O  O115  1  0.20377808  0.87873394  0.17487779  1
  O  O116  1  0.32504414  0.20377808  0.82512221  1
  O  O117  1  0.67495586  0.87873394  0.67487779  1
  O  O118  1  0.67495586  0.79622192  0.17487779  1
  O  O119  1  0.32504414  0.12126606  0.32512221  1
  O  O120  1  0.87873394  0.67495586  0.82512221  1
  O  O121  1  0.12126606  0.79622192  0.67487779  1
  O  O122  1  0.12126606  0.32504414  0.17487779  1
  O  O123  1  0.87873394  0.20377808  0.32512221  1
  O  O124  1  0.20377808  0.32504414  0.67487779  1
  O  O125  1  0.79622192  0.67495586  0.32512221  1
  O  O126  1  0.48134234  0.48894771  0.86515331  1
  O  O127  1  0.51865766  0.51105229  0.13484669  1
  O  O128  1  0.00760537  0.51865766  0.86515331  1
  O  O129  1  0.99239463  0.51105229  0.63484669  1
  O  O130  1  0.99239463  0.48134234  0.13484669  1
  O  O131  1  0.00760537  0.48894771  0.36515331  1
  O  O132  1  0.51105229  0.99239463  0.86515331  1
  O  O133  1  0.48894771  0.48134234  0.63484669  1
  O  O134  1  0.48894771  0.00760537  0.13484669  1
  O  O135  1  0.51105229  0.51865766  0.36515331  1
  O  O136  1  0.51865766  0.00760537  0.63484669  1
  O  O137  1  0.48134234  0.99239463  0.36515331  1
  O  O138  1  0.84612276  0.90746728  0.80863273  1
  O  O139  1  0.15387724  0.09253272  0.19136727  1
  O  O140  1  0.06134452  0.15387724  0.80863273  1
  O  O141  1  0.93865548  0.09253272  0.69136727  1
  O  O142  1  0.93865548  0.84612276  0.19136727  1
  O  O143  1  0.06134452  0.90746728  0.30863273  1
  O  O144  1  0.09253272  0.93865548  0.80863273  1
  O  O145  1  0.90746728  0.84612276  0.69136727  1
  O  O146  1  0.90746728  0.06134452  0.19136727  1
  O  O147  1  0.09253272  0.15387724  0.30863273  1
  O  O148  1  0.15387724  0.06134452  0.69136727  1
  O  O149  1  0.84612276  0.93865548  0.30863273  1
  O  O150  1  0.40392707  0.58027707  0.96839893  1
  O  O151  1  0.59607293  0.41972293  0.03160107  1
  O  O152  1  0.17635000  0.59607293  0.96839893  1
  O  O153  1  0.82365000  0.41972293  0.53160107  1
  O  O154  1  0.82365000  0.40392707  0.03160107  1
  O  O155  1  0.17635000  0.58027707  0.46839893  1
  O  O156  1  0.41972293  0.82365000  0.96839893  1
  O  O157  1  0.58027707  0.40392707  0.53160107  1
  O  O158  1  0.58027707  0.17635000  0.03160107  1
  O  O159  1  0.41972293  0.59607293  0.46839893  1
  O  O160  1  0.59607293  0.17635000  0.53160107  1
  O  O161  1  0.40392707  0.82365000  0.46839893  1
  O  O162  1  0.48743629  0.72854531  0.82956466  1
  O  O163  1  0.51256371  0.27145469  0.17043534  1
  O  O164  1  0.24110902  0.51256371  0.82956466  1
  O  O165  1  0.75889098  0.27145469  0.67043534  1
  O  O166  1  0.75889098  0.48743629  0.17043534  1
  O  O167  1  0.24110902  0.72854531  0.32956466  1
  O  O168  1  0.27145469  0.75889098  0.82956466  1
  O  O169  1  0.72854531  0.48743629  0.67043534  1
  O  O170  1  0.72854531  0.24110902  0.17043534  1
  O  O171  1  0.27145469  0.51256371  0.32956466  1
  O  O172  1  0.51256371  0.24110902  0.67043534  1
  O  O173  1  0.48743629  0.75889098  0.32956466  1
