# generated using pymatgen
data_Mn23As16
_symmetry_space_group_name_H-M   'P 1'
_cell_length_a   6.71900133
_cell_length_b   7.01454312
_cell_length_c   12.85376963
_cell_angle_alpha   82.15619948
_cell_angle_beta   82.28007705
_cell_angle_gamma   104.92936478
_symmetry_Int_Tables_number   1
_chemical_formula_structural   Mn23As16
_chemical_formula_sum   'Mn23 As16'
_cell_volume   570.71830888
_cell_formula_units_Z   1
loop_
 _symmetry_equiv_pos_site_id
 _symmetry_equiv_pos_as_xyz
  1  'x, y, z'
loop_
 _atom_site_type_symbol
 _atom_site_label
 _atom_site_symmetry_multiplicity
 _atom_site_fract_x
 _atom_site_fract_y
 _atom_site_fract_z
 _atom_site_occupancy
  Mn  Mn0  1  0.86445400  0.06706300  0.59690200  1
  Mn  Mn1  1  0.86991200  0.56776200  0.59263200  1
  Mn  Mn2  1  0.12948000  0.93187800  0.40781700  1
  Mn  Mn3  1  0.12975700  0.43171100  0.40876800  1
  Mn  Mn4  1  0.85861900  0.77275000  0.76706100  1
  Mn  Mn5  1  0.86126000  0.27349000  0.76708000  1
  Mn  Mn6  1  0.14512300  0.23035500  0.23221700  1
  Mn  Mn7  1  0.14603100  0.72704300  0.23075900  1
  Mn  Mn8  1  0.21139600  0.12220000  0.71998400  1
  Mn  Mn9  1  0.20903600  0.62062600  0.72004500  1
  Mn  Mn10  1  0.77608400  0.87420700  0.28269000  1
  Mn  Mn11  1  0.77726600  0.37385100  0.28324400  1
  Mn  Mn12  1  0.50453800  0.99855000  0.51029600  1
  Mn  Mn13  1  0.50313600  0.50161000  0.50357900  1
  Mn  Mn14  1  0.42923100  0.61896800  0.90247800  1
  Mn  Mn15  1  0.43017800  0.14419500  0.90418500  1
  Mn  Mn16  1  0.57798900  0.37331800  0.08253500  1
  Mn  Mn17  1  0.57526000  0.87078900  0.08752900  1
  Mn  Mn18  1  0.99563900  0.49817800  0.99953900  1
  Mn  Mn19  1  0.99738700  0.00010500  0.99885800  1
  Mn  Mn20  1  0.52416500  0.94284600  0.75240800  1
  Mn  Mn21  1  0.47681400  0.55641000  0.24578000  1
  Mn  Mn22  1  0.47617100  0.05999600  0.24496700  1
  As  As23  1  0.86997800  0.11717200  0.40565900  1
  As  As24  1  0.87293200  0.61803800  0.40307700  1
  As  As25  1  0.12925600  0.88312100  0.59642300  1
  As  As26  1  0.13146900  0.38139800  0.59698800  1
  As  As27  1  0.40313400  0.25644700  0.37555600  1
  As  As28  1  0.40304700  0.75885300  0.37469200  1
  As  As29  1  0.59159100  0.72658300  0.63677600  1
  As  As30  1  0.59270800  0.25114600  0.63756600  1
  As  As31  1  0.17462300  0.82729300  0.86446800  1
  As  As32  1  0.17334700  0.32802800  0.86359600  1
  As  As33  1  0.82547900  0.17386200  0.13370900  1
  As  As34  1  0.82500000  0.67092400  0.13395600  1
  As  As35  1  0.70281500  0.95191500  0.89840200  1
  As  As36  1  0.70973400  0.45372700  0.89134000  1
  As  As37  1  0.29584200  0.05090000  0.09675700  1
  As  As38  1  0.29869600  0.54829800  0.09582400  1
