# generated using pymatgen
data_DyAl7Fe5
_symmetry_space_group_name_H-M   'P 1'
_cell_length_a   6.60887301
_cell_length_b   6.60887301
_cell_length_c   6.60887301
_cell_angle_alpha   135.38647965
_cell_angle_beta   98.40597345
_cell_angle_gamma   98.16090259
_symmetry_Int_Tables_number   1
_chemical_formula_structural   DyAl7Fe5
_chemical_formula_sum   'Dy1 Al7 Fe5'
_cell_volume   187.55806718
_cell_formula_units_Z   1
loop_
 _symmetry_equiv_pos_site_id
 _symmetry_equiv_pos_as_xyz
  1  'x, y, z'
loop_
 _atom_site_type_symbol
 _atom_site_label
 _atom_site_symmetry_multiplicity
 _atom_site_fract_x
 _atom_site_fract_y
 _atom_site_fract_z
 _atom_site_occupancy
  Dy  Dy0  1  0.00482200  0.00000000  0.00482200  1
  Al  Al1  1  0.65981500  0.00000000  0.65981500  1
  Al  Al2  1  0.33931000  0.00000000  0.33931000  1
  Al  Al3  1  0.33434100  0.34269700  0.99164400  1
  Al  Al4  1  0.64894600  0.65730300  0.99164400  1
  Al  Al5  1  0.77463400  0.50000000  0.27463400  1
  Al  Al6  1  0.79297600  0.28850700  0.50446900  1
  Al  Al7  1  0.21596200  0.71149300  0.50446900  1
  Fe  Fe8  1  0.49895200  0.49818500  0.49610500  1
  Fe  Fe9  1  0.49895200  0.00284700  0.00076700  1
  Fe  Fe10  1  0.99792000  0.99715300  0.49610500  1
  Fe  Fe11  1  0.99792000  0.50181500  0.00076700  1
  Fe  Fe12  1  0.23544900  0.50000000  0.73544900  1
