# generated using pymatgen
data_CuSnF6
_symmetry_space_group_name_H-M   'P 1'
_cell_length_a   5.58304285
_cell_length_b   5.58304285
_cell_length_c   5.58304354
_cell_angle_alpha   56.75375280
_cell_angle_beta   56.75375280
_cell_angle_gamma   56.75375096
_symmetry_Int_Tables_number   1
_chemical_formula_structural   CuSnF6
_chemical_formula_sum   'Cu1 Sn1 F6'
_cell_volume   113.83275138
_cell_formula_units_Z   1
loop_
 _symmetry_equiv_pos_site_id
 _symmetry_equiv_pos_as_xyz
  1  'x, y, z'
loop_
 _atom_site_type_symbol
 _atom_site_label
 _atom_site_symmetry_multiplicity
 _atom_site_fract_x
 _atom_site_fract_y
 _atom_site_fract_z
 _atom_site_occupancy
  Cu  Cu0  1  0.50000000  0.50000000  0.50000000  1
  Sn  Sn1  1  0.00000000  0.00000000  0.00000000  1
  F  F2  1  0.86517000  0.24950200  0.63738600  1
  F  F3  1  0.63738600  0.86517000  0.24950200  1
  F  F4  1  0.75049800  0.36261400  0.13483000  1
  F  F5  1  0.36261400  0.13483000  0.75049800  1
  F  F6  1  0.13483000  0.75049800  0.36261400  1
  F  F7  1  0.24950200  0.63738600  0.86517000  1
