# generated using pymatgen
data_Li2VGeO5
_symmetry_space_group_name_H-M   'P 1'
_cell_length_a   4.60742600
_cell_length_b   9.33154323
_cell_length_c   9.33158708
_cell_angle_alpha   89.99974819
_cell_angle_beta   89.99987705
_cell_angle_gamma   89.99955299
_symmetry_Int_Tables_number   1
_chemical_formula_structural   Li2VGeO5
_chemical_formula_sum   'Li8 V4 Ge4 O20'
_cell_volume   401.20593991
_cell_formula_units_Z   4
loop_
 _symmetry_equiv_pos_site_id
 _symmetry_equiv_pos_as_xyz
  1  'x, y, z'
loop_
 _atom_site_type_symbol
 _atom_site_label
 _atom_site_symmetry_multiplicity
 _atom_site_fract_x
 _atom_site_fract_y
 _atom_site_fract_z
 _atom_site_occupancy
  Li  Li0  1  0.00000800  0.25000000  0.25000300  1
  Li  Li1  1  0.00000000  0.75000000  0.75000500  1
  Li  Li2  1  0.00000900  0.99999200  0.00000000  1
  Li  Li3  1  0.99999800  0.50000000  0.50000000  1
  Li  Li4  1  0.00001000  0.50000800  0.00000000  1
  Li  Li5  1  0.99999900  0.00000000  0.50000000  1
  Li  Li6  1  0.00000700  0.25000000  0.74999700  1
  Li  Li7  1  0.00000000  0.75000000  0.24999500  1
  V  V8  1  0.59457400  0.74999800  0.49999900  1
  V  V9  1  0.40542000  0.25000200  0.49999900  1
  V  V10  1  0.59465000  0.25000100  0.00000100  1
  V  V11  1  0.40545000  0.74999900  0.00000000  1
  Ge  Ge12  1  0.49999100  0.50000300  0.25000600  1
  Ge  Ge13  1  0.49999100  0.99999700  0.74999400  1
  Ge  Ge14  1  0.49999100  0.50000300  0.74999400  1
  Ge  Ge15  1  0.49999000  0.99999700  0.25000500  1
  O  O16  1  0.23018900  0.25000000  0.00000000  1
  O  O17  1  0.23020100  0.75000000  0.50000000  1
  O  O18  1  0.76975600  0.74999900  0.00000100  1
  O  O19  1  0.76979800  0.24999900  0.50000000  1
  O  O20  1  0.73261100  0.39307000  0.14306800  1
  O  O21  1  0.73261900  0.89308100  0.64308200  1
  O  O22  1  0.73262000  0.60692000  0.64308200  1
  O  O23  1  0.73261100  0.10692800  0.14306900  1
  O  O24  1  0.73261000  0.39307200  0.85693000  1
  O  O25  1  0.73261900  0.89308100  0.35691800  1
  O  O26  1  0.73262100  0.60692100  0.35691900  1
  O  O27  1  0.73261100  0.10692800  0.85693100  1
  O  O28  1  0.26738400  0.60692600  0.85692600  1
  O  O29  1  0.26737800  0.10691700  0.35691700  1
  O  O30  1  0.26737700  0.39308100  0.64308200  1
  O  O31  1  0.26738400  0.89307500  0.14307500  1
  O  O32  1  0.26737600  0.39308000  0.35691800  1
  O  O33  1  0.26738300  0.89307500  0.85692500  1
  O  O34  1  0.26738400  0.60692700  0.14307400  1
  O  O35  1  0.26737800  0.10691700  0.64308300  1
