# generated using pymatgen
data_Tm5Mg24
_symmetry_space_group_name_H-M   'P 1'
_cell_length_a   9.70822272
_cell_length_b   9.70822272
_cell_length_c   9.70822272
_cell_angle_alpha   109.47122063
_cell_angle_beta   109.47122063
_cell_angle_gamma   109.47122063
_symmetry_Int_Tables_number   1
_chemical_formula_structural   Tm5Mg24
_chemical_formula_sum   'Tm5 Mg24'
_cell_volume   704.36424529
_cell_formula_units_Z   1
loop_
 _symmetry_equiv_pos_site_id
 _symmetry_equiv_pos_as_xyz
  1  'x, y, z'
loop_
 _atom_site_type_symbol
 _atom_site_label
 _atom_site_symmetry_multiplicity
 _atom_site_fract_x
 _atom_site_fract_y
 _atom_site_fract_z
 _atom_site_occupancy
  Tm  Tm0  1  0.37168300  0.37168300  0.37168300  1
  Tm  Tm1  1  0.00000000  0.62831700  0.00000000  1
  Tm  Tm2  1  0.62831700  0.00000000  0.00000000  1
  Tm  Tm3  1  0.00000000  0.00000000  0.62831700  1
  Tm  Tm4  1  0.00000000  0.00000000  0.00000000  1
  Mg  Mg5  1  0.62879600  0.62879600  0.81928300  1
  Mg  Mg6  1  0.00000000  0.19048800  0.37120400  1
  Mg  Mg7  1  0.19048800  0.00000000  0.37120400  1
  Mg  Mg8  1  0.80951200  0.18071700  0.80951200  1
  Mg  Mg9  1  0.18071700  0.80951200  0.80951200  1
  Mg  Mg10  1  0.32290300  0.32290300  0.71305100  1
  Mg  Mg11  1  0.39014900  0.67709700  0.00000000  1
  Mg  Mg12  1  0.67709700  0.39014900  0.00000000  1
  Mg  Mg13  1  0.60985100  0.28694900  0.60985100  1
  Mg  Mg14  1  0.39014900  0.00000000  0.67709700  1
  Mg  Mg15  1  0.00000000  0.39014900  0.67709700  1
  Mg  Mg16  1  0.28694900  0.60985100  0.60985100  1
  Mg  Mg17  1  0.71305100  0.32290300  0.32290300  1
  Mg  Mg18  1  0.32290300  0.71305100  0.32290300  1
  Mg  Mg19  1  0.67709700  0.00000000  0.39014900  1
  Mg  Mg20  1  0.00000000  0.67709700  0.39014900  1
  Mg  Mg21  1  0.60985100  0.60985100  0.28694900  1
  Mg  Mg22  1  0.80951200  0.80951200  0.18071700  1
  Mg  Mg23  1  0.37120400  0.19048800  0.00000000  1
  Mg  Mg24  1  0.19048800  0.37120400  0.00000000  1
  Mg  Mg25  1  0.62879600  0.81928300  0.62879600  1
  Mg  Mg26  1  0.37120400  0.00000000  0.19048800  1
  Mg  Mg27  1  0.00000000  0.37120400  0.19048800  1
  Mg  Mg28  1  0.81928300  0.62879600  0.62879600  1
