# generated using pymatgen
data_Ho2Fe12P7
_symmetry_space_group_name_H-M   'P 1'
_cell_length_a   3.63557700
_cell_length_b   8.96981809
_cell_length_c   8.97222130
_cell_angle_alpha   120.05757281
_cell_angle_beta   90.00000000
_cell_angle_gamma   90.00000000
_symmetry_Int_Tables_number   1
_chemical_formula_structural   Ho2Fe12P7
_chemical_formula_sum   'Ho2 Fe12 P7'
_cell_volume   253.24177353
_cell_formula_units_Z   1
loop_
 _symmetry_equiv_pos_site_id
 _symmetry_equiv_pos_as_xyz
  1  'x, y, z'
loop_
 _atom_site_type_symbol
 _atom_site_label
 _atom_site_symmetry_multiplicity
 _atom_site_fract_x
 _atom_site_fract_y
 _atom_site_fract_z
 _atom_site_occupancy
  Ho  Ho0  1  0.00000000  0.66685700  0.33357600  1
  Ho  Ho1  1  0.50000000  0.33312000  0.66650400  1
  Fe  Fe2  1  0.00000000  0.37289800  0.94474500  1
  Fe  Fe3  1  0.00000000  0.05531500  0.42797200  1
  Fe  Fe4  1  0.00000000  0.57177700  0.62697800  1
  Fe  Fe5  1  0.00000000  0.88055100  0.72552300  1
  Fe  Fe6  1  0.00000000  0.27471100  0.15529900  1
  Fe  Fe7  1  0.00000000  0.84465800  0.11951100  1
  Fe  Fe8  1  0.50000000  0.95154900  0.56775200  1
  Fe  Fe9  1  0.50000000  0.43224500  0.38389500  1
  Fe  Fe10  1  0.50000000  0.61631700  0.04842400  1
  Fe  Fe11  1  0.50000000  0.12111900  0.90310800  1
  Fe  Fe12  1  0.50000000  0.09675400  0.21798000  1
  Fe  Fe13  1  0.50000000  0.78201600  0.87883200  1
  P  P14  1  0.00000000  0.11444900  0.70424100  1
  P  P15  1  0.00000000  0.29515600  0.41009700  1
  P  P16  1  0.00000000  0.58969100  0.88485600  1
  P  P17  1  0.50000000  0.71080400  0.59823100  1
  P  P18  1  0.50000000  0.40188300  0.11227000  1
  P  P19  1  0.50000000  0.88814200  0.29015800  1
  P  P20  1  0.00000000  0.99998700  0.00004800  1
