# generated using pymatgen
data_Cs4TeSe15
_symmetry_space_group_name_H-M   'P 1'
_cell_length_a   10.40959700
_cell_length_b   14.36209500
_cell_length_c   19.99387700
_cell_angle_alpha   90.00000000
_cell_angle_beta   90.00000000
_cell_angle_gamma   90.00000000
_symmetry_Int_Tables_number   1
_chemical_formula_structural   Cs4TeSe15
_chemical_formula_sum   'Cs16 Te4 Se60'
_cell_volume   2989.15700984
_cell_formula_units_Z   4
loop_
 _symmetry_equiv_pos_site_id
 _symmetry_equiv_pos_as_xyz
  1  'x, y, z'
loop_
 _atom_site_type_symbol
 _atom_site_label
 _atom_site_symmetry_multiplicity
 _atom_site_fract_x
 _atom_site_fract_y
 _atom_site_fract_z
 _atom_site_occupancy
  Cs  Cs0  1  0.96923300  0.38212200  0.25000000  1
  Cs  Cs1  1  0.03076700  0.61787800  0.75000000  1
  Cs  Cs2  1  0.96923300  0.11787800  0.75000000  1
  Cs  Cs3  1  0.03076700  0.88212200  0.25000000  1
  Cs  Cs4  1  0.65815600  0.61810500  0.25000000  1
  Cs  Cs5  1  0.34184400  0.38189500  0.75000000  1
  Cs  Cs6  1  0.65815600  0.88189500  0.75000000  1
  Cs  Cs7  1  0.34184400  0.11810500  0.25000000  1
  Cs  Cs8  1  0.88499100  0.25000000  0.50000000  1
  Cs  Cs9  1  0.11500900  0.75000000  0.00000000  1
  Cs  Cs10  1  0.11500900  0.75000000  0.50000000  1
  Cs  Cs11  1  0.88499100  0.25000000  0.00000000  1
  Cs  Cs12  1  0.39839500  0.25000000  0.50000000  1
  Cs  Cs13  1  0.60160500  0.75000000  0.00000000  1
  Cs  Cs14  1  0.60160500  0.75000000  0.50000000  1
  Cs  Cs15  1  0.39839500  0.25000000  0.00000000  1
  Te  Te16  1  0.46505600  0.38264800  0.25000000  1
  Te  Te17  1  0.53494400  0.61735200  0.75000000  1
  Te  Te18  1  0.46505600  0.11735200  0.75000000  1
  Te  Te19  1  0.53494400  0.88264800  0.25000000  1
  Se  Se20  1  0.29337600  0.42754800  0.34898800  1
  Se  Se21  1  0.70662400  0.57245200  0.84898800  1
  Se  Se22  1  0.29337600  0.07245200  0.65101200  1
  Se  Se23  1  0.70662400  0.92754800  0.15101200  1
  Se  Se24  1  0.70662400  0.57245200  0.65101200  1
  Se  Se25  1  0.29337600  0.42754800  0.15101200  1
  Se  Se26  1  0.70662400  0.92754800  0.34898800  1
  Se  Se27  1  0.29337600  0.07245200  0.84898800  1
  Se  Se28  1  0.30920400  0.59465100  0.34537700  1
  Se  Se29  1  0.69079600  0.40534900  0.84537700  1
  Se  Se30  1  0.30920400  0.90534900  0.65462300  1
  Se  Se31  1  0.69079600  0.09465100  0.15462300  1
  Se  Se32  1  0.69079600  0.40534900  0.65462300  1
  Se  Se33  1  0.30920400  0.59465100  0.15462300  1
  Se  Se34  1  0.69079600  0.09465100  0.34537700  1
  Se  Se35  1  0.30920400  0.90534900  0.84537700  1
  Se  Se36  1  0.18254900  0.63598300  0.25000000  1
  Se  Se37  1  0.81745100  0.36401700  0.75000000  1
  Se  Se38  1  0.18254900  0.86401700  0.75000000  1
  Se  Se39  1  0.81745100  0.13598300  0.25000000  1
  Se  Se40  1  0.65236900  0.33301800  0.35646900  1
  Se  Se41  1  0.34763100  0.66698200  0.85646900  1
  Se  Se42  1  0.65236900  0.16698200  0.64353100  1
  Se  Se43  1  0.34763100  0.83301800  0.14353100  1
  Se  Se44  1  0.34763100  0.66698200  0.64353100  1
  Se  Se45  1  0.65236900  0.33301800  0.14353100  1
  Se  Se46  1  0.34763100  0.83301800  0.35646900  1
  Se  Se47  1  0.65236900  0.16698200  0.85646900  1
  Se  Se48  1  0.60683000  0.46003200  0.42927500  1
  Se  Se49  1  0.39317000  0.53996800  0.92927500  1
  Se  Se50  1  0.60683000  0.03996800  0.57072500  1
  Se  Se51  1  0.39317000  0.96003200  0.07072500  1
  Se  Se52  1  0.39317000  0.53996800  0.57072500  1
  Se  Se53  1  0.60683000  0.46003200  0.07072500  1
  Se  Se54  1  0.39317000  0.96003200  0.42927500  1
  Se  Se55  1  0.60683000  0.03996800  0.92927500  1
  Se  Se56  1  0.81036900  0.51079700  0.47331000  1
  Se  Se57  1  0.18963100  0.48920300  0.97331000  1
  Se  Se58  1  0.81036900  0.98920300  0.52669000  1
  Se  Se59  1  0.18963100  0.01079700  0.02669000  1
  Se  Se60  1  0.18963100  0.48920300  0.52669000  1
  Se  Se61  1  0.81036900  0.51079700  0.02669000  1
  Se  Se62  1  0.18963100  0.01079700  0.47331000  1
  Se  Se63  1  0.81036900  0.98920300  0.97331000  1
  Se  Se64  1  0.92744400  0.58269500  0.38495600  1
  Se  Se65  1  0.07255600  0.41730500  0.88495600  1
  Se  Se66  1  0.92744400  0.91730500  0.61504400  1
  Se  Se67  1  0.07255600  0.08269500  0.11504400  1
  Se  Se68  1  0.07255600  0.41730500  0.61504400  1
  Se  Se69  1  0.92744400  0.58269500  0.11504400  1
  Se  Se70  1  0.07255600  0.08269500  0.38495600  1
  Se  Se71  1  0.92744400  0.91730500  0.88495600  1
  Se  Se72  1  0.86003800  0.74013700  0.37406700  1
  Se  Se73  1  0.13996200  0.25986300  0.87406700  1
  Se  Se74  1  0.86003800  0.75986300  0.62593300  1
  Se  Se75  1  0.13996200  0.24013700  0.12593300  1
  Se  Se76  1  0.13996200  0.25986300  0.62593300  1
  Se  Se77  1  0.86003800  0.74013700  0.12593300  1
  Se  Se78  1  0.13996200  0.24013700  0.37406700  1
  Se  Se79  1  0.86003800  0.75986300  0.87406700  1
