# generated using pymatgen
data_K2RuO5
_symmetry_space_group_name_H-M   'P 1'
_cell_length_a   6.71864200
_cell_length_b   8.04715900
_cell_length_c   10.60303200
_cell_angle_alpha   90.00000000
_cell_angle_beta   90.00000000
_cell_angle_gamma   90.00000000
_symmetry_Int_Tables_number   1
_chemical_formula_structural   K2RuO5
_chemical_formula_sum   'K8 Ru4 O20'
_cell_volume   573.26332070
_cell_formula_units_Z   4
loop_
 _symmetry_equiv_pos_site_id
 _symmetry_equiv_pos_as_xyz
  1  'x, y, z'
loop_
 _atom_site_type_symbol
 _atom_site_label
 _atom_site_symmetry_multiplicity
 _atom_site_fract_x
 _atom_site_fract_y
 _atom_site_fract_z
 _atom_site_occupancy
  K  K0  1  0.37772300  0.60926000  0.45782900  1
  K  K1  1  0.87772300  0.89074000  0.54217100  1
  K  K2  1  0.62227700  0.10926000  0.04217100  1
  K  K3  1  0.12227700  0.39074000  0.95782900  1
  K  K4  1  0.02525400  0.75343700  0.19434400  1
  K  K5  1  0.52525400  0.74656300  0.80565600  1
  K  K6  1  0.97474600  0.25343700  0.30565600  1
  K  K7  1  0.47474600  0.24656300  0.69434400  1
  Ru  Ru8  1  0.41527600  0.06296600  0.38128000  1
  Ru  Ru9  1  0.91527600  0.43703400  0.61872000  1
  Ru  Ru10  1  0.58472400  0.56296600  0.11872000  1
  Ru  Ru11  1  0.08472400  0.93703400  0.88128000  1
  O  O12  1  0.98998000  0.53123500  0.46804100  1
  O  O13  1  0.48998000  0.96876500  0.53195900  1
  O  O14  1  0.01002000  0.03123500  0.03195900  1
  O  O15  1  0.51002000  0.46876500  0.96804100  1
  O  O16  1  0.20429200  0.92173600  0.37844900  1
  O  O17  1  0.70429200  0.57826400  0.62155100  1
  O  O18  1  0.79570800  0.42173600  0.12155100  1
  O  O19  1  0.29570800  0.07826400  0.87844900  1
  O  O20  1  0.65498100  0.63304300  0.27545800  1
  O  O21  1  0.15498100  0.86695700  0.72454200  1
  O  O22  1  0.34501900  0.13304300  0.22454200  1
  O  O23  1  0.84501900  0.36695700  0.77545800  1
  O  O24  1  0.33884500  0.52146800  0.17833200  1
  O  O25  1  0.83884500  0.97853200  0.82166800  1
  O  O26  1  0.66115500  0.02146800  0.32166800  1
  O  O27  1  0.16115500  0.47853200  0.67833200  1
  O  O28  1  0.63501900  0.75921100  0.04966100  1
  O  O29  1  0.13501900  0.74078900  0.95033900  1
  O  O30  1  0.36498100  0.25921100  0.45033900  1
  O  O31  1  0.86498100  0.24078900  0.54966100  1
