# generated using pymatgen
data_MnCuF6
_symmetry_space_group_name_H-M   'P 1'
_cell_length_a   4.99929352
_cell_length_b   5.10230813
_cell_length_c   5.36922393
_cell_angle_alpha   60.71203264
_cell_angle_beta   62.24826651
_cell_angle_gamma   60.68587161
_symmetry_Int_Tables_number   1
_chemical_formula_structural   MnCuF6
_chemical_formula_sum   'Mn1 Cu1 F6'
_cell_volume   99.44389577
_cell_formula_units_Z   1
loop_
 _symmetry_equiv_pos_site_id
 _symmetry_equiv_pos_as_xyz
  1  'x, y, z'
loop_
 _atom_site_type_symbol
 _atom_site_label
 _atom_site_symmetry_multiplicity
 _atom_site_fract_x
 _atom_site_fract_y
 _atom_site_fract_z
 _atom_site_occupancy
  Mn  Mn0  1  0.50000000  0.50000000  0.50000000  1
  Cu  Cu1  1  -0.00000000  0.00000000  -0.00000000  1
  F  F2  1  0.74222194  0.37184861  0.74594363  1
  F  F3  1  0.25777806  0.62815139  0.25405637  1
  F  F4  1  0.62536273  0.86000920  0.25958428  1
  F  F5  1  0.37463727  0.13999080  0.74041572  1
  F  F6  1  0.14963042  0.72831248  0.73269055  1
  F  F7  1  0.85036958  0.27168752  0.26730945  1
