# generated using pymatgen
data_Yb7Ni4Sn13
_symmetry_space_group_name_H-M   'P 1'
_cell_length_a   11.20912200
_cell_length_b   11.20912200
_cell_length_c   4.58424800
_cell_angle_alpha   90.00000000
_cell_angle_beta   90.00000000
_cell_angle_gamma   90.00000000
_symmetry_Int_Tables_number   1
_chemical_formula_structural   Yb7Ni4Sn13
_chemical_formula_sum   'Yb7 Ni4 Sn13'
_cell_volume   575.98516281
_cell_formula_units_Z   1
loop_
 _symmetry_equiv_pos_site_id
 _symmetry_equiv_pos_as_xyz
  1  'x, y, z'
loop_
 _atom_site_type_symbol
 _atom_site_label
 _atom_site_symmetry_multiplicity
 _atom_site_fract_x
 _atom_site_fract_y
 _atom_site_fract_z
 _atom_site_occupancy
  Yb  Yb0  1  0.00000000  0.00000000  0.00000000  1
  Yb  Yb1  1  0.33833100  0.67098300  0.50000000  1
  Yb  Yb2  1  0.66166900  0.32901700  0.50000000  1
  Yb  Yb3  1  0.32901700  0.33833100  0.50000000  1
  Yb  Yb4  1  0.67098300  0.66166900  0.50000000  1
  Yb  Yb5  1  0.50000000  0.00000000  0.50000000  1
  Yb  Yb6  1  0.00000000  0.50000000  0.50000000  1
  Ni  Ni7  1  0.12011200  0.72384200  0.00000000  1
  Ni  Ni8  1  0.87988800  0.27615800  0.00000000  1
  Ni  Ni9  1  0.27615800  0.12011200  0.00000000  1
  Ni  Ni10  1  0.72384200  0.87988800  0.00000000  1
  Sn  Sn11  1  0.28417000  0.88936500  0.00000000  1
  Sn  Sn12  1  0.71583000  0.11063500  0.00000000  1
  Sn  Sn13  1  0.11063500  0.28417000  0.00000000  1
  Sn  Sn14  1  0.88936500  0.71583000  0.00000000  1
  Sn  Sn15  1  0.07689300  0.80960000  0.50000000  1
  Sn  Sn16  1  0.92310700  0.19040000  0.50000000  1
  Sn  Sn17  1  0.19040000  0.07689300  0.50000000  1
  Sn  Sn18  1  0.80960000  0.92310700  0.50000000  1
  Sn  Sn19  1  0.51879300  0.78461100  0.00000000  1
  Sn  Sn20  1  0.48120700  0.21538900  0.00000000  1
  Sn  Sn21  1  0.21538900  0.51879300  0.00000000  1
  Sn  Sn22  1  0.78461100  0.48120700  0.00000000  1
  Sn  Sn23  1  0.50000000  0.50000000  0.00000000  1
