# generated using pymatgen
data_Er7(TeRh)2
_symmetry_space_group_name_H-M   'P 1'
_cell_length_a   9.35969358
_cell_length_b   9.35969358
_cell_length_c   9.35969358
_cell_angle_alpha   156.03148732
_cell_angle_beta   119.20820394
_cell_angle_gamma   66.31215660
_symmetry_Int_Tables_number   1
_chemical_formula_structural   Er7(TeRh)2
_chemical_formula_sum   'Er7 Te2 Rh2'
_cell_volume   288.47574798
_cell_formula_units_Z   1
loop_
 _symmetry_equiv_pos_site_id
 _symmetry_equiv_pos_as_xyz
  1  'x, y, z'
loop_
 _atom_site_type_symbol
 _atom_site_label
 _atom_site_symmetry_multiplicity
 _atom_site_fract_x
 _atom_site_fract_y
 _atom_site_fract_z
 _atom_site_occupancy
  Er  Er0  1  0.71661500  0.13154200  0.58507200  1
  Er  Er1  1  0.45353000  0.86845800  0.58507200  1
  Er  Er2  1  0.69215600  0.31614500  0.37601100  1
  Er  Er3  1  0.05986600  0.68385500  0.37601100  1
  Er  Er4  1  0.08725700  0.35397600  0.73328100  1
  Er  Er5  1  0.37930500  0.64602400  0.73328100  1
  Er  Er6  1  0.00072700  0.00000000  0.00072700  1
  Te  Te7  1  0.73577100  0.50000000  0.23577100  1
  Te  Te8  1  0.33880900  0.00000000  0.33880900  1
  Rh  Rh9  1  0.31016200  0.23761000  0.07255200  1
  Rh  Rh10  1  0.83494200  0.76239000  0.07255200  1
