# generated using pymatgen
data_Ba4Ce(RuO4)3
_symmetry_space_group_name_H-M   'P 1'
_cell_length_a   5.95635038
_cell_length_b   5.95635038
_cell_length_c   29.85948380
_cell_angle_alpha   89.07903242
_cell_angle_beta   89.07903242
_cell_angle_gamma   60.01110545
_symmetry_Int_Tables_number   1
_chemical_formula_structural   Ba4Ce(RuO4)3
_chemical_formula_sum   'Ba12 Ce3 Ru9 O36'
_cell_volume   917.37556865
_cell_formula_units_Z   3
loop_
 _symmetry_equiv_pos_site_id
 _symmetry_equiv_pos_as_xyz
  1  'x, y, z'
loop_
 _atom_site_type_symbol
 _atom_site_label
 _atom_site_symmetry_multiplicity
 _atom_site_fract_x
 _atom_site_fract_y
 _atom_site_fract_z
 _atom_site_occupancy
  Ba  Ba0  1  0.99792420  0.99792420  0.86805258  1
  Ba  Ba1  1  0.00207580  0.00207580  0.13194742  1
  Ba  Ba2  1  0.33334637  0.33334637  0.46384242  1
  Ba  Ba3  1  0.66665363  0.66665363  0.53615758  1
  Ba  Ba4  1  0.66814199  0.66814199  0.95012478  1
  Ba  Ba5  1  0.33185801  0.33185801  0.04987522  1
  Ba  Ba6  1  0.00238256  0.00238256  0.28363749  1
  Ba  Ba7  1  0.99761744  0.99761744  0.71636251  1
  Ba  Ba8  1  0.33652141  0.33652141  0.61644350  1
  Ba  Ba9  1  0.66347859  0.66347859  0.38355650  1
  Ba  Ba10  1  0.66450706  0.66450706  0.79605407  1
  Ba  Ba11  1  0.33549294  0.33549294  0.20394593  1
  Ce  Ce12  1  0.66795639  0.66795639  0.66671083  1
  Ce  Ce13  1  0.33204361  0.33204361  0.33328917  1
  Ce  Ce14  1  0.00000000  -0.00000000  0.00000000  1
  Ru  Ru15  1  0.33243062  0.33243062  0.83363600  1
  Ru  Ru16  1  0.66756938  0.66756938  0.16636400  1
  Ru  Ru17  1  0.33675700  0.33675700  0.91900679  1
  Ru  Ru18  1  0.66324300  0.66324300  0.08099321  1
  Ru  Ru19  1  0.32908886  0.32908886  0.74780143  1
  Ru  Ru20  1  0.67091114  0.67091114  0.25219857  1
  Ru  Ru21  1  0.00630834  0.00630834  0.58578738  1
  Ru  Ru22  1  0.99369166  0.99369166  0.41421262  1
  Ru  Ru23  1  0.00000000  -0.00000000  0.50000000  1
  O  O24  1  0.18203736  0.18203736  0.95908392  1
  O  O25  1  0.81796264  0.81796264  0.04091608  1
  O  O26  1  0.32864536  0.85146999  0.62136175  1
  O  O27  1  0.67135464  0.14853001  0.37863825  1
  O  O28  1  0.14853001  0.67135464  0.37863825  1
  O  O29  1  0.85146999  0.32864536  0.62136175  1
  O  O30  1  0.17612853  0.17612853  0.79294183  1
  O  O31  1  0.82387147  0.82387147  0.20705817  1
  O  O32  1  0.15783596  0.15783596  0.54013841  1
  O  O33  1  0.84216404  0.84216404  0.45986159  1
  O  O34  1  0.65671747  0.18050693  0.95526289  1
  O  O35  1  0.34328253  0.81949307  0.04473711  1
  O  O36  1  0.81949307  0.34328253  0.04473711  1
  O  O37  1  0.18050693  0.65671747  0.95526289  1
  O  O38  1  0.30670675  0.84372738  0.45624162  1
  O  O39  1  0.69329325  0.15627262  0.54375838  1
  O  O40  1  0.15627262  0.69329325  0.54375838  1
  O  O41  1  0.84372738  0.30670675  0.45624162  1
  O  O42  1  0.64080671  0.17700688  0.79038051  1
  O  O43  1  0.35919329  0.82299312  0.20961949  1
  O  O44  1  0.82299312  0.35919329  0.20961949  1
  O  O45  1  0.17700688  0.64080671  0.79038051  1
  O  O46  1  0.48425059  0.00874404  0.71171034  1
  O  O47  1  0.51574941  0.99125596  0.28828966  1
  O  O48  1  0.99125596  0.51574941  0.28828966  1
  O  O49  1  0.00874404  0.48425059  0.71171034  1
  O  O50  1  0.14581185  0.14581185  0.37272575  1
  O  O51  1  0.85418815  0.85418815  0.62727425  1
  O  O52  1  0.48970398  0.48970398  0.87360289  1
  O  O53  1  0.51029602  0.51029602  0.12639711  1
  O  O54  1  0.48353553  0.48353553  0.70703279  1
  O  O55  1  0.51646447  0.51646447  0.29296721  1
  O  O56  1  0.48900526  0.02400675  0.87664895  1
  O  O57  1  0.51099474  0.97599325  0.12335105  1
  O  O58  1  0.97599325  0.51099474  0.12335105  1
  O  O59  1  0.02400675  0.48900526  0.87664895  1
