# generated using pymatgen
data_Rb2ZnBr4
_symmetry_space_group_name_H-M   'P 1'
_cell_length_a   15.80024030
_cell_length_b   15.81079109
_cell_length_c   29.67256471
_cell_angle_alpha   90.00000000
_cell_angle_beta   90.00000000
_cell_angle_gamma   119.99031081
_symmetry_Int_Tables_number   1
_chemical_formula_structural   Rb2ZnBr4
_chemical_formula_sum   'Rb48 Zn24 Br96'
_cell_volume   6420.15337805
_cell_formula_units_Z   24
loop_
 _symmetry_equiv_pos_site_id
 _symmetry_equiv_pos_as_xyz
  1  'x, y, z'
loop_
 _atom_site_type_symbol
 _atom_site_label
 _atom_site_symmetry_multiplicity
 _atom_site_fract_x
 _atom_site_fract_y
 _atom_site_fract_z
 _atom_site_occupancy
  Rb  Rb0  1  0.45173478  0.17120961  0.24719012  1
  Rb  Rb1  1  0.45173478  0.67120961  0.75280988  1
  Rb  Rb2  1  0.97696455  0.16557464  0.91455825  1
  Rb  Rb3  1  0.97696455  0.66557464  0.08544175  1
  Rb  Rb4  1  0.02486191  0.81541770  0.25392704  1
  Rb  Rb5  1  0.02486191  0.31541770  0.74607296  1
  Rb  Rb6  1  0.96526445  0.66931627  0.41954757  1
  Rb  Rb7  1  0.96526445  0.16931627  0.58045243  1
  Rb  Rb8  1  0.46990553  0.67251042  0.08767020  1
  Rb  Rb9  1  0.46990553  0.17251042  0.91232980  1
  Rb  Rb10  1  0.31718545  0.40001708  0.87365544  1
  Rb  Rb11  1  0.31718545  0.90001708  0.12634456  1
  Rb  Rb12  1  0.46817238  0.66856179  0.42225185  1
  Rb  Rb13  1  0.46817238  0.16856179  0.57774815  1
  Rb  Rb14  1  0.94977894  0.16876709  0.24511662  1
  Rb  Rb15  1  0.94977894  0.66876709  0.75488338  1
  Rb  Rb16  1  0.55175427  0.31326640  0.41296162  1
  Rb  Rb17  1  0.55175427  0.81326640  0.58703838  1
  Rb  Rb18  1  0.81691313  0.40810609  0.20967503  1
  Rb  Rb19  1  0.81691313  0.90810609  0.79032497  1
  Rb  Rb20  1  0.19264272  0.09766670  0.04209122  1
  Rb  Rb21  1  0.19264272  0.59766670  0.95790878  1
  Rb  Rb22  1  0.84227406  0.90120779  0.45681186  1
  Rb  Rb23  1  0.84227406  0.40120779  0.54318814  1
  Rb  Rb24  1  0.03414481  0.31614795  0.07859465  1
  Rb  Rb25  1  0.03414481  0.81614795  0.92140535  1
  Rb  Rb26  1  0.32840305  0.88986854  0.45787650  1
  Rb  Rb27  1  0.32840305  0.38986854  0.54212350  1
  Rb  Rb28  1  0.52224583  0.81586170  0.25352410  1
  Rb  Rb29  1  0.52224583  0.31586170  0.74647590  1
  Rb  Rb30  1  0.31473133  0.39112979  0.20845824  1
  Rb  Rb31  1  0.31473133  0.89112979  0.79154176  1
  Rb  Rb32  1  0.16651594  0.58317802  0.29037793  1
  Rb  Rb33  1  0.16651594  0.08317802  0.70962207  1
  Rb  Rb34  1  0.04252103  0.31977332  0.41394168  1
  Rb  Rb35  1  0.04252103  0.81977332  0.58605832  1
  Rb  Rb36  1  0.54719261  0.81747527  0.92049335  1
  Rb  Rb37  1  0.54719261  0.31747527  0.07950665  1
  Rb  Rb38  1  0.66928833  0.58248040  0.62693410  1
  Rb  Rb39  1  0.66928833  0.08248040  0.37306590  1
  Rb  Rb40  1  0.66981523  0.08224966  0.04253727  1
  Rb  Rb41  1  0.66981523  0.58224966  0.95746273  1
  Rb  Rb42  1  0.65403174  0.58781697  0.29245275  1
  Rb  Rb43  1  0.65403174  0.08781697  0.70754725  1
  Rb  Rb44  1  0.17046259  0.09794223  0.37477499  1
  Rb  Rb45  1  0.17046259  0.59794223  0.62522501  1
  Rb  Rb46  1  0.82997339  0.89065441  0.12486519  1
  Rb  Rb47  1  0.82997339  0.39065441  0.87513481  1
  Zn  Zn48  1  0.33409131  0.41497705  0.00897174  1
  Zn  Zn49  1  0.33409131  0.91497705  0.99102826  1
  Zn  Zn50  1  0.83963647  0.91097558  0.99300106  1
  Zn  Zn51  1  0.83963647  0.41097558  0.00699894  1
  Zn  Zn52  1  0.66095619  0.57740852  0.15623511  1
  Zn  Zn53  1  0.66095619  0.07740852  0.84376489  1
  Zn  Zn54  1  0.15642838  0.56824516  0.15809007  1
  Zn  Zn55  1  0.15642838  0.06824516  0.84190993  1
  Zn  Zn56  1  0.66750386  0.07099919  0.17538575  1
  Zn  Zn57  1  0.66750386  0.57099919  0.82461425  1
  Zn  Zn58  1  0.16943618  0.07201117  0.17643236  1
  Zn  Zn59  1  0.16943618  0.57201117  0.82356764  1
  Zn  Zn60  1  0.82887906  0.41196538  0.34227918  1
  Zn  Zn61  1  0.82887906  0.91196538  0.65772082  1
  Zn  Zn62  1  0.33549773  0.91042476  0.32416606  1
  Zn  Zn63  1  0.33549773  0.41042476  0.67583394  1
  Zn  Zn64  1  0.84388547  0.91698308  0.32389950  1
  Zn  Zn65  1  0.84388547  0.41698308  0.67610050  1
  Zn  Zn66  1  0.32876588  0.41278523  0.34342486  1
  Zn  Zn67  1  0.32876588  0.91278523  0.65657514  1
  Zn  Zn68  1  0.16574754  0.57411049  0.49151762  1
  Zn  Zn69  1  0.16574754  0.07411049  0.50848238  1
  Zn  Zn70  1  0.66764718  0.56952154  0.49258965  1
  Zn  Zn71  1  0.66764718  0.06952154  0.50741035  1
  Br  Br72  1  0.17360101  0.36080064  0.97498897  1
  Br  Br73  1  0.17360101  0.86080064  0.02501103  1
  Br  Br74  1  0.39460593  0.30648880  0.98633977  1
  Br  Br75  1  0.39460593  0.80648880  0.01366023  1
  Br  Br76  1  0.44040312  0.57625183  0.97519234  1
  Br  Br77  1  0.44040312  0.07625183  0.02480766  1
  Br  Br78  1  0.31945547  0.41570300  0.08972727  1
  Br  Br79  1  0.31945547  0.91570300  0.91027273  1
  Br  Br80  1  0.82986040  0.91088038  0.91176098  1
  Br  Br81  1  0.82986040  0.41088038  0.08823902  1
  Br  Br82  1  0.67838155  0.86240068  0.02531063  1
  Br  Br83  1  0.67838155  0.36240068  0.97468937  1
  Br  Br84  1  0.95468557  0.06916784  0.02633652  1
  Br  Br85  1  0.95468557  0.56916784  0.97366348  1
  Br  Br86  1  0.88429771  0.79039691  0.01613008  1
  Br  Br87  1  0.88429771  0.29039691  0.98386992  1
  Br  Br88  1  0.56515919  0.41654737  0.19174514  1
  Br  Br89  1  0.56515919  0.91654737  0.80825486  1
  Br  Br90  1  0.64110120  0.57108615  0.07562066  1
  Br  Br91  1  0.64110120  0.07108615  0.92437934  1
  Br  Br92  1  0.60556057  0.68524139  0.18690779  1
  Br  Br93  1  0.60556057  0.18524139  0.81309221  1
  Br  Br94  1  0.82940843  0.64076079  0.17991152  1
  Br  Br95  1  0.82940843  0.14076079  0.82008848  1
  Br  Br96  1  0.31978682  0.62247565  0.18769379  1
  Br  Br97  1  0.31978682  0.12247565  0.81230621  1
  Br  Br98  1  0.10112545  0.67623151  0.18858197  1
  Br  Br99  1  0.10112545  0.17623151  0.81141803  1
  Br  Br100  1  0.04869144  0.40543745  0.18923112  1
  Br  Br101  1  0.04869144  0.90543745  0.81076888  1
  Br  Br102  1  0.15168700  0.57412567  0.07700931  1
  Br  Br103  1  0.15168700  0.07412567  0.92299069  1
  Br  Br104  1  0.82271691  0.11773225  0.13729035  1
  Br  Br105  1  0.82271691  0.61773225  0.86270965  1
  Br  Br106  1  0.61495545  0.18836472  0.15832855  1
  Br  Br107  1  0.61495545  0.68836472  0.84167145  1
  Br  Br108  1  0.69035755  0.06526030  0.25575300  1
  Br  Br109  1  0.69035755  0.56526030  0.74424700  1
  Br  Br110  1  0.54872280  0.91333247  0.14199389  1
  Br  Br111  1  0.54872280  0.41333247  0.85800611  1
  Br  Br112  1  0.33279619  0.13766256  0.14206866  1
  Br  Br113  1  0.33279619  0.63766256  0.85793134  1
  Br  Br114  1  0.06938781  0.91158717  0.14175323  1
  Br  Br115  1  0.06938781  0.41158717  0.85824677  1
  Br  Br116  1  0.10401405  0.17641639  0.15535674  1
  Br  Br117  1  0.10401405  0.67641639  0.84464326  1
  Br  Br118  1  0.18909116  0.06791137  0.25692844  1
  Br  Br119  1  0.18909116  0.56791137  0.74307156  1
  Br  Br120  1  0.94051539  0.35967631  0.31489829  1
  Br  Br121  1  0.94051539  0.85967631  0.68510171  1
  Br  Br122  1  0.87840925  0.57131703  0.30795920  1
  Br  Br123  1  0.87840925  0.07131703  0.69204080  1
  Br  Br124  1  0.66585525  0.29676013  0.31317329  1
  Br  Br125  1  0.66585525  0.79676013  0.68682671  1
  Br  Br126  1  0.82088613  0.41401950  0.42330496  1
  Br  Br127  1  0.82088613  0.91401950  0.57669504  1
  Br  Br128  1  0.44036013  0.85579583  0.36075809  1
  Br  Br129  1  0.44036013  0.35579583  0.63924191  1
  Br  Br130  1  0.16587125  0.79439443  0.34170087  1
  Br  Br131  1  0.16587125  0.29439443  0.65829913  1
  Br  Br132  1  0.38145957  0.06822260  0.35846324  1
  Br  Br133  1  0.38145957  0.56822260  0.64153676  1
  Br  Br134  1  0.36420280  0.91787166  0.24386570  1
  Br  Br135  1  0.36420280  0.41787166  0.75613430  1
  Br  Br136  1  0.67346778  0.80981070  0.34410317  1
  Br  Br137  1  0.67346778  0.30981070  0.65589683  1
  Br  Br138  1  0.86802876  0.91969077  0.24344463  1
  Br  Br139  1  0.86802876  0.41969077  0.75655537  1
  Br  Br140  1  0.94654814  0.85987832  0.35969297  1
  Br  Br141  1  0.94654814  0.35987832  0.64030703  1
  Br  Br142  1  0.89684482  0.07715634  0.35829392  1
  Br  Br143  1  0.89684482  0.57715634  0.64170608  1
  Br  Br144  1  0.65441120  0.57033456  0.41149304  1
  Br  Br145  1  0.65441120  0.07033456  0.58850696  1
  Br  Br146  1  0.62365155  0.40952185  0.52454313  1
  Br  Br147  1  0.62365155  0.90952185  0.47545687  1
  Br  Br148  1  0.55544334  0.61551491  0.52743082  1
  Br  Br149  1  0.55544334  0.11551491  0.47256918  1
  Br  Br150  1  0.83442535  0.68853258  0.51395967  1
  Br  Br151  1  0.83442535  0.18853258  0.48604033  1
  Br  Br152  1  0.15527982  0.57430286  0.41053006  1
  Br  Br153  1  0.15527982  0.07430286  0.58946994  1
  Br  Br154  1  0.11007786  0.41374170  0.52560454  1
  Br  Br155  1  0.11007786  0.91374170  0.47439546  1
  Br  Br156  1  0.05963910  0.63178479  0.52283316  1
  Br  Br157  1  0.05963910  0.13178479  0.47716684  1
  Br  Br158  1  0.33322645  0.68311824  0.51627151  1
  Br  Br159  1  0.33322645  0.18311824  0.48372849  1
  Br  Br160  1  0.31315758  0.41234146  0.42419239  1
  Br  Br161  1  0.31315758  0.91234146  0.57580761  1
  Br  Br162  1  0.16555570  0.31057274  0.31142412  1
  Br  Br163  1  0.16555570  0.81057274  0.68857588  1
  Br  Br164  1  0.43138063  0.34798501  0.31717282  1
  Br  Br165  1  0.43138063  0.84798501  0.68282718  1
  Br  Br166  1  0.39832405  0.57667139  0.31087242  1
  Br  Br167  1  0.39832405  0.07667139  0.68912758  1
