# generated using pymatgen
data_Nd23Mg4Pt7
_symmetry_space_group_name_H-M   'P 1'
_cell_length_a   10.13756850
_cell_length_b   10.13756850
_cell_length_c   22.93899600
_cell_angle_alpha   90.00000000
_cell_angle_beta   90.00000000
_cell_angle_gamma   120.00000327
_symmetry_Int_Tables_number   1
_chemical_formula_structural   Nd23Mg4Pt7
_chemical_formula_sum   'Nd46 Mg8 Pt14'
_cell_volume   2041.60925948
_cell_formula_units_Z   2
loop_
 _symmetry_equiv_pos_site_id
 _symmetry_equiv_pos_as_xyz
  1  'x, y, z'
loop_
 _atom_site_type_symbol
 _atom_site_label
 _atom_site_symmetry_multiplicity
 _atom_site_fract_x
 _atom_site_fract_y
 _atom_site_fract_z
 _atom_site_occupancy
  Nd  Nd0  1  0.12941700  0.87058300  0.36395800  1
  Nd  Nd1  1  0.74116600  0.87058300  0.36395800  1
  Nd  Nd2  1  0.12941700  0.25883400  0.36395800  1
  Nd  Nd3  1  0.87058300  0.12941700  0.86395800  1
  Nd  Nd4  1  0.25883400  0.12941700  0.86395800  1
  Nd  Nd5  1  0.87058300  0.74116600  0.86395800  1
  Nd  Nd6  1  0.20176700  0.79823300  0.21649500  1
  Nd  Nd7  1  0.59646600  0.79823300  0.21649500  1
  Nd  Nd8  1  0.20176700  0.40353400  0.21649500  1
  Nd  Nd9  1  0.79823300  0.20176700  0.71649500  1
  Nd  Nd10  1  0.40353400  0.20176700  0.71649500  1
  Nd  Nd11  1  0.79823300  0.59646600  0.71649500  1
  Nd  Nd12  1  0.20648200  0.79351800  0.05338900  1
  Nd  Nd13  1  0.58703700  0.79351800  0.05338900  1
  Nd  Nd14  1  0.20648200  0.41296300  0.05338900  1
  Nd  Nd15  1  0.79351800  0.20648200  0.55338900  1
  Nd  Nd16  1  0.41296300  0.20648200  0.55338900  1
  Nd  Nd17  1  0.79351800  0.58703700  0.55338900  1
  Nd  Nd18  1  0.21206200  0.78793800  0.50852800  1
  Nd  Nd19  1  0.57587500  0.78793800  0.50852800  1
  Nd  Nd20  1  0.21206200  0.42412500  0.50852800  1
  Nd  Nd21  1  0.78793800  0.21206200  0.00852800  1
  Nd  Nd22  1  0.42412500  0.21206200  0.00852800  1
  Nd  Nd23  1  0.78793800  0.57587500  0.00852800  1
  Nd  Nd24  1  0.53877500  0.46122500  0.41452200  1
  Nd  Nd25  1  0.92245000  0.46122500  0.41452200  1
  Nd  Nd26  1  0.53877500  0.07755000  0.41452200  1
  Nd  Nd27  1  0.46122500  0.53877500  0.91452200  1
  Nd  Nd28  1  0.07755000  0.53877500  0.91452200  1
  Nd  Nd29  1  0.46122500  0.92245000  0.91452200  1
  Nd  Nd30  1  0.54417300  0.45582700  0.14238600  1
  Nd  Nd31  1  0.91165300  0.45582700  0.14238600  1
  Nd  Nd32  1  0.54417300  0.08834700  0.14238600  1
  Nd  Nd33  1  0.45582700  0.54417300  0.64238600  1
  Nd  Nd34  1  0.08834700  0.54417300  0.64238600  1
  Nd  Nd35  1  0.45582700  0.91165300  0.64238600  1
  Nd  Nd36  1  0.33333300  0.66666700  0.35732800  1
  Nd  Nd37  1  0.66666700  0.33333300  0.85732800  1
  Nd  Nd38  1  0.00000000  0.00000000  0.50083500  1
  Nd  Nd39  1  0.00000000  0.00000000  0.00083500  1
  Nd  Nd40  1  0.79323900  0.20676100  0.27888400  1
  Nd  Nd41  1  0.41352300  0.20676100  0.27888400  1
  Nd  Nd42  1  0.79323900  0.58647700  0.27888400  1
  Nd  Nd43  1  0.20676100  0.79323900  0.77888400  1
  Nd  Nd44  1  0.58647700  0.79323900  0.77888400  1
  Nd  Nd45  1  0.20676100  0.41352300  0.77888400  1
  Mg  Mg46  1  0.89299700  0.10700300  0.13565500  1
  Mg  Mg47  1  0.21400500  0.10700300  0.13565500  1
  Mg  Mg48  1  0.89299700  0.78599500  0.13565500  1
  Mg  Mg49  1  0.10700300  0.89299700  0.63565500  1
  Mg  Mg50  1  0.78599500  0.89299700  0.63565500  1
  Mg  Mg51  1  0.10700300  0.21400500  0.63565500  1
  Mg  Mg52  1  0.00000000  0.00000000  0.24974100  1
  Mg  Mg53  1  0.00000000  0.00000000  0.74974100  1
  Pt  Pt54  1  0.47748600  0.52251400  0.28971200  1
  Pt  Pt55  1  0.04502900  0.52251400  0.28971200  1
  Pt  Pt56  1  0.47748600  0.95497100  0.28971200  1
  Pt  Pt57  1  0.52251400  0.47748600  0.78971200  1
  Pt  Pt58  1  0.95497100  0.47748600  0.78971200  1
  Pt  Pt59  1  0.52251400  0.04502900  0.78971200  1
  Pt  Pt60  1  0.85679000  0.14321000  0.43474000  1
  Pt  Pt61  1  0.28642100  0.14321000  0.43474000  1
  Pt  Pt62  1  0.85679000  0.71357900  0.43474000  1
  Pt  Pt63  1  0.14321000  0.85679000  0.93474000  1
  Pt  Pt64  1  0.71357900  0.85679000  0.93474000  1
  Pt  Pt65  1  0.14321000  0.28642100  0.93474000  1
  Pt  Pt66  1  0.33333300  0.66666700  0.13728500  1
  Pt  Pt67  1  0.66666700  0.33333300  0.63728500  1
