# generated using pymatgen
data_NiAg(PO3)3
_symmetry_space_group_name_H-M   'P 1'
_cell_length_a   10.04930910
_cell_length_b   10.86341985
_cell_length_c   14.06243456
_cell_angle_alpha   90.00000000
_cell_angle_beta   90.00000000
_cell_angle_gamma   90.00000000
_symmetry_Int_Tables_number   1
_chemical_formula_structural   NiAg(PO3)3
_chemical_formula_sum   'Ni8 Ag8 P24 O72'
_cell_volume   1535.19406780
_cell_formula_units_Z   8
loop_
 _symmetry_equiv_pos_site_id
 _symmetry_equiv_pos_as_xyz
  1  'x, y, z'
loop_
 _atom_site_type_symbol
 _atom_site_label
 _atom_site_symmetry_multiplicity
 _atom_site_fract_x
 _atom_site_fract_y
 _atom_site_fract_z
 _atom_site_occupancy
  Ni  Ni0  1  0.53088025  0.50000000  0.75000000  1
  Ni  Ni1  1  0.46911975  0.50000000  0.25000000  1
  Ni  Ni2  1  0.96911975  0.50000000  0.25000000  1
  Ni  Ni3  1  0.03088025  0.50000000  0.75000000  1
  Ni  Ni4  1  -0.00000000  0.00000000  0.00000000  1
  Ni  Ni5  1  -0.00000000  0.00000000  0.50000000  1
  Ni  Ni6  1  0.50000000  0.00000000  -0.00000000  1
  Ni  Ni7  1  0.50000000  0.00000000  0.50000000  1
  Ag  Ag8  1  0.97580522  0.75149063  0.62309452  1
  Ag  Ag9  1  0.02419478  0.24850937  0.37690548  1
  Ag  Ag10  1  0.97580522  0.24850937  0.87690548  1
  Ag  Ag11  1  0.52419478  0.75149063  0.37690548  1
  Ag  Ag12  1  0.02419478  0.75149063  0.12309452  1
  Ag  Ag13  1  0.47580522  0.24850937  0.62309452  1
  Ag  Ag14  1  0.52419478  0.24850937  0.12309452  1
  Ag  Ag15  1  0.47580522  0.75149063  0.87690548  1
  P  P16  1  0.78564960  0.53017610  0.89849199  1
  P  P17  1  0.21435040  0.46982390  0.10150801  1
  P  P18  1  0.78564960  0.46982390  0.60150801  1
  P  P19  1  0.71435040  0.53017610  0.10150801  1
  P  P20  1  0.21435040  0.53017610  0.39849199  1
  P  P21  1  0.28564960  0.46982390  0.89849199  1
  P  P22  1  0.71435040  0.46982390  0.39849199  1
  P  P23  1  0.28564960  0.53017610  0.60150801  1
  P  P24  1  0.76196444  0.95420174  0.85175974  1
  P  P25  1  0.23803556  0.04579826  0.14824026  1
  P  P26  1  0.76196444  0.04579826  0.64824026  1
  P  P27  1  0.73803556  0.95420174  0.14824026  1
  P  P28  1  0.23803556  0.95420174  0.35175974  1
  P  P29  1  0.26196444  0.04579826  0.85175974  1
  P  P30  1  0.73803556  0.04579826  0.35175974  1
  P  P31  1  0.26196444  0.95420174  0.64824026  1
  P  P32  1  0.95108454  0.74922112  0.87349820  1
  P  P33  1  0.04891546  0.25077888  0.12650180  1
  P  P34  1  0.95108454  0.25077888  0.62650180  1
  P  P35  1  0.54891546  0.74922112  0.12650180  1
  P  P36  1  0.04891546  0.74922112  0.37349820  1
  P  P37  1  0.45108454  0.25077888  0.87349820  1
  P  P38  1  0.54891546  0.25077888  0.37349820  1
  P  P39  1  0.45108454  0.74922112  0.62650180  1
  O  O40  1  0.66081548  0.56748115  0.84863731  1
  O  O41  1  0.33918452  0.43251885  0.15136269  1
  O  O42  1  0.66081548  0.43251885  0.65136269  1
  O  O43  1  0.83918452  0.56748115  0.15136269  1
  O  O44  1  0.33918452  0.56748115  0.34863731  1
  O  O45  1  0.16081548  0.43251885  0.84863731  1
  O  O46  1  0.83918452  0.43251885  0.34863731  1
  O  O47  1  0.16081548  0.56748115  0.65136269  1
  O  O48  1  0.97481775  0.82616338  0.44472729  1
  O  O49  1  0.02518225  0.17383662  0.55527271  1
  O  O50  1  0.97481775  0.17383662  0.05527271  1
  O  O51  1  0.52518225  0.82616338  0.55527271  1
  O  O52  1  0.02518225  0.82616338  0.94472729  1
  O  O53  1  0.47481775  0.17383662  0.44472729  1
  O  O54  1  0.52518225  0.17383662  0.94472729  1
  O  O55  1  0.47481775  0.82616338  0.05527271  1
  O  O56  1  0.75000000  0.46965383  0.00000000  1
  O  O57  1  0.25000000  0.53034617  -0.00000000  1
  O  O58  1  0.75000000  0.53034617  0.50000000  1
  O  O59  1  0.25000000  0.46965383  0.50000000  1
  O  O60  1  0.85980044  0.95616410  0.60596619  1
  O  O61  1  0.14019956  0.04383590  0.39403381  1
  O  O62  1  0.85980044  0.04383590  0.89403381  1
  O  O63  1  0.64019956  0.95616410  0.39403381  1
  O  O64  1  0.14019956  0.95616410  0.10596619  1
  O  O65  1  0.35980044  0.04383590  0.60596619  1
  O  O66  1  0.64019956  0.04383590  0.10596619  1
  O  O67  1  0.35980044  0.95616410  0.89403381  1
  O  O68  1  0.86345548  0.65255573  0.93416849  1
  O  O69  1  0.13654452  0.34744427  0.06583151  1
  O  O70  1  0.86345548  0.34744427  0.56583151  1
  O  O71  1  0.63654452  0.65255573  0.06583151  1
  O  O72  1  0.13654452  0.65255573  0.43416849  1
  O  O73  1  0.36345548  0.34744427  0.93416849  1
  O  O74  1  0.63654452  0.34744427  0.43416849  1
  O  O75  1  0.36345548  0.65255573  0.56583151  1
  O  O76  1  0.64082533  0.91784858  0.90791886  1
  O  O77  1  0.35917467  0.08215142  0.09208114  1
  O  O78  1  0.64082533  0.08215142  0.59208114  1
  O  O79  1  0.85917467  0.91784858  0.09208114  1
  O  O80  1  0.35917467  0.91784858  0.40791886  1
  O  O81  1  0.14082533  0.08215142  0.90791886  1
  O  O82  1  0.85917467  0.08215142  0.40791886  1
  O  O83  1  0.14082533  0.91784858  0.59208114  1
  O  O84  1  0.88197893  0.55491197  0.65102713  1
  O  O85  1  0.11802107  0.44508803  0.34897287  1
  O  O86  1  0.88197893  0.44508803  0.84897287  1
  O  O87  1  0.61802107  0.55491197  0.34897287  1
  O  O88  1  0.11802107  0.55491197  0.15102713  1
  O  O89  1  0.38197893  0.44508803  0.65102713  1
  O  O90  1  0.61802107  0.44508803  0.15102713  1
  O  O91  1  0.38197893  0.55491197  0.84897287  1
  O  O92  1  0.83995196  0.83057544  0.81903911  1
  O  O93  1  0.16004804  0.16942456  0.18096089  1
  O  O94  1  0.83995196  0.16942456  0.68096089  1
  O  O95  1  0.66004804  0.83057544  0.18096089  1
  O  O96  1  0.16004804  0.83057544  0.31903911  1
  O  O97  1  0.33995196  0.16942456  0.81903911  1
  O  O98  1  0.66004804  0.16942456  0.31903911  1
  O  O99  1  0.33995196  0.83057544  0.68096089  1
  O  O100  1  0.70868408  0.00000000  0.75000000  1
  O  O101  1  0.29131592  0.00000000  0.25000000  1
  O  O102  1  0.79131592  0.00000000  0.25000000  1
  O  O103  1  0.20868408  0.00000000  0.75000000  1
  O  O104  1  0.52663101  0.68177008  0.70227809  1
  O  O105  1  0.47336899  0.31822992  0.29772191  1
  O  O106  1  0.52663101  0.31822992  0.79772191  1
  O  O107  1  0.97336899  0.68177008  0.29772191  1
  O  O108  1  0.47336899  0.68177008  0.20227809  1
  O  O109  1  0.02663101  0.31822992  0.70227809  1
  O  O110  1  0.97336899  0.31822992  0.20227809  1
  O  O111  1  0.02663101  0.68177008  0.79772191  1
