# generated using pymatgen
data_Nd23Mg4Ni7
_symmetry_space_group_name_H-M   'P 1'
_cell_length_a   9.96006584
_cell_length_b   9.96006584
_cell_length_c   22.52265900
_cell_angle_alpha   90.00000000
_cell_angle_beta   90.00000000
_cell_angle_gamma   119.99999897
_symmetry_Int_Tables_number   1
_chemical_formula_structural   Nd23Mg4Ni7
_chemical_formula_sum   'Nd46 Mg8 Ni14'
_cell_volume   1934.97214162
_cell_formula_units_Z   2
loop_
 _symmetry_equiv_pos_site_id
 _symmetry_equiv_pos_as_xyz
  1  'x, y, z'
loop_
 _atom_site_type_symbol
 _atom_site_label
 _atom_site_symmetry_multiplicity
 _atom_site_fract_x
 _atom_site_fract_y
 _atom_site_fract_z
 _atom_site_occupancy
  Nd  Nd0  1  0.20748500  0.41497100  0.71892100  1
  Nd  Nd1  1  0.20748500  0.79251500  0.71892100  1
  Nd  Nd2  1  0.79251500  0.58502900  0.21892100  1
  Nd  Nd3  1  0.58502900  0.79251500  0.71892100  1
  Nd  Nd4  1  0.79251500  0.20748500  0.21892100  1
  Nd  Nd5  1  0.41497100  0.20748500  0.21892100  1
  Nd  Nd6  1  0.79211100  0.58422200  0.94788300  1
  Nd  Nd7  1  0.79211100  0.20788900  0.94788300  1
  Nd  Nd8  1  0.20788900  0.41577800  0.44788300  1
  Nd  Nd9  1  0.41577800  0.20788900  0.94788300  1
  Nd  Nd10  1  0.20788900  0.79211100  0.44788300  1
  Nd  Nd11  1  0.58422200  0.79211100  0.44788300  1
  Nd  Nd12  1  0.21074500  0.42149100  0.99115500  1
  Nd  Nd13  1  0.21074500  0.78925500  0.99115500  1
  Nd  Nd14  1  0.78925500  0.57850900  0.49115500  1
  Nd  Nd15  1  0.57850900  0.78925500  0.99115500  1
  Nd  Nd16  1  0.78925500  0.21074500  0.49115500  1
  Nd  Nd17  1  0.42149100  0.21074500  0.49115500  1
  Nd  Nd18  1  0.87129600  0.74259200  0.63451100  1
  Nd  Nd19  1  0.87129600  0.12870400  0.63451100  1
  Nd  Nd20  1  0.12870400  0.25740800  0.13451100  1
  Nd  Nd21  1  0.25740800  0.12870400  0.63451100  1
  Nd  Nd22  1  0.12870400  0.87129600  0.13451100  1
  Nd  Nd23  1  0.74259200  0.87129600  0.13451100  1
  Nd  Nd24  1  0.45776200  0.91552500  0.85614500  1
  Nd  Nd25  1  0.45776200  0.54223800  0.85614500  1
  Nd  Nd26  1  0.54223800  0.08447500  0.35614500  1
  Nd  Nd27  1  0.08447500  0.54223800  0.85614500  1
  Nd  Nd28  1  0.54223800  0.45776200  0.35614500  1
  Nd  Nd29  1  0.91552500  0.45776200  0.35614500  1
  Nd  Nd30  1  0.00000000  0.00000000  0.00037700  1
  Nd  Nd31  1  0.00000000  0.00000000  0.50037700  1
  Nd  Nd32  1  0.46008800  0.92017500  0.58527500  1
  Nd  Nd33  1  0.46008800  0.53991200  0.58527500  1
  Nd  Nd34  1  0.53991200  0.07982500  0.08527500  1
  Nd  Nd35  1  0.07982500  0.53991200  0.58527500  1
  Nd  Nd36  1  0.53991200  0.46008800  0.08527500  1
  Nd  Nd37  1  0.92017500  0.46008800  0.08527500  1
  Nd  Nd38  1  0.79466500  0.58933000  0.78180300  1
  Nd  Nd39  1  0.79466500  0.20533500  0.78180300  1
  Nd  Nd40  1  0.20533500  0.41067000  0.28180300  1
  Nd  Nd41  1  0.41067000  0.20533500  0.78180300  1
  Nd  Nd42  1  0.20533500  0.79466500  0.28180300  1
  Nd  Nd43  1  0.58933000  0.79466500  0.28180300  1
  Nd  Nd44  1  0.66666700  0.33333300  0.64498400  1
  Nd  Nd45  1  0.33333300  0.66666700  0.14498400  1
  Mg  Mg46  1  0.00000000  0.00000000  0.75018600  1
  Mg  Mg47  1  0.00000000  0.00000000  0.25018600  1
  Mg  Mg48  1  0.10563900  0.21127700  0.86268700  1
  Mg  Mg49  1  0.10563900  0.89436100  0.86268700  1
  Mg  Mg50  1  0.89436100  0.78872300  0.36268700  1
  Mg  Mg51  1  0.78872300  0.89436100  0.86268700  1
  Mg  Mg52  1  0.89436100  0.10563900  0.36268700  1
  Mg  Mg53  1  0.21127700  0.10563900  0.36268700  1
  Ni  Ni54  1  0.52096100  0.04192100  0.70975300  1
  Ni  Ni55  1  0.52096100  0.47903900  0.70975300  1
  Ni  Ni56  1  0.47903900  0.95807900  0.20975300  1
  Ni  Ni57  1  0.95807900  0.47903900  0.70975300  1
  Ni  Ni58  1  0.47903900  0.52096100  0.20975300  1
  Ni  Ni59  1  0.04192100  0.52096100  0.20975300  1
  Ni  Ni60  1  0.66666700  0.33333300  0.86389600  1
  Ni  Ni61  1  0.33333300  0.66666700  0.36389600  1
  Ni  Ni62  1  0.14322900  0.28645900  0.56429300  1
  Ni  Ni63  1  0.14322900  0.85677100  0.56429300  1
  Ni  Ni64  1  0.85677100  0.71354100  0.06429300  1
  Ni  Ni65  1  0.71354100  0.85677100  0.56429300  1
  Ni  Ni66  1  0.85677100  0.14322900  0.06429300  1
  Ni  Ni67  1  0.28645900  0.14322900  0.06429300  1
