# generated using pymatgen
data_U6TlF25
_symmetry_space_group_name_H-M   'P 1'
_cell_length_a   8.17709835
_cell_length_b   8.17709835
_cell_length_c   16.64553700
_cell_angle_alpha   90.00000000
_cell_angle_beta   90.00000000
_cell_angle_gamma   120.00000282
_symmetry_Int_Tables_number   1
_chemical_formula_structural   U6TlF25
_chemical_formula_sum   'U12 Tl2 F50'
_cell_volume   963.88866286
_cell_formula_units_Z   2
loop_
 _symmetry_equiv_pos_site_id
 _symmetry_equiv_pos_as_xyz
  1  'x, y, z'
loop_
 _atom_site_type_symbol
 _atom_site_label
 _atom_site_symmetry_multiplicity
 _atom_site_fract_x
 _atom_site_fract_y
 _atom_site_fract_z
 _atom_site_occupancy
  U  U0  1  0.16666400  0.33332800  0.11277400  1
  U  U1  1  0.83333600  0.66667200  0.88722600  1
  U  U2  1  0.66667200  0.83333600  0.11277400  1
  U  U3  1  0.83333600  0.66667200  0.61277400  1
  U  U4  1  0.33332800  0.16666400  0.88722600  1
  U  U5  1  0.16666400  0.33332800  0.38722600  1
  U  U6  1  0.16666400  0.83333600  0.11277400  1
  U  U7  1  0.33332800  0.16666400  0.61277400  1
  U  U8  1  0.83333600  0.16666400  0.88722600  1
  U  U9  1  0.66667200  0.83333600  0.38722600  1
  U  U10  1  0.83333600  0.16666400  0.61277400  1
  U  U11  1  0.16666400  0.83333600  0.38722600  1
  Tl  Tl12  1  0.33333300  0.66666700  0.75000000  1
  Tl  Tl13  1  0.66666700  0.33333300  0.25000000  1
  F  F14  1  0.00000000  0.00000000  0.07265800  1
  F  F15  1  0.00000000  0.00000000  0.92734200  1
  F  F16  1  0.00000000  0.00000000  0.57265800  1
  F  F17  1  0.00000000  0.00000000  0.42734200  1
  F  F18  1  0.18822400  0.37644700  0.25000000  1
  F  F19  1  0.81177600  0.62355300  0.75000000  1
  F  F20  1  0.62355300  0.81177600  0.25000000  1
  F  F21  1  0.37644700  0.18822400  0.75000000  1
  F  F22  1  0.18822400  0.81177600  0.25000000  1
  F  F23  1  0.81177600  0.18822400  0.75000000  1
  F  F24  1  0.13706400  0.27412700  0.66146200  1
  F  F25  1  0.86293600  0.72587300  0.33853800  1
  F  F26  1  0.72587300  0.86293600  0.66146200  1
  F  F27  1  0.86293600  0.72587300  0.16146200  1
  F  F28  1  0.27412700  0.13706400  0.33853800  1
  F  F29  1  0.13706400  0.27412700  0.83853800  1
  F  F30  1  0.13706400  0.86293600  0.66146200  1
  F  F31  1  0.27412700  0.13706400  0.16146200  1
  F  F32  1  0.86293600  0.13706400  0.33853800  1
  F  F33  1  0.72587300  0.86293600  0.83853800  1
  F  F34  1  0.86293600  0.13706400  0.16146200  1
  F  F35  1  0.13706400  0.86293600  0.83853800  1
  F  F36  1  0.32268700  0.00000000  0.00000000  1
  F  F37  1  0.67731300  0.00000000  0.00000000  1
  F  F38  1  0.00000000  0.32268700  0.00000000  1
  F  F39  1  0.67731300  0.00000000  0.50000000  1
  F  F40  1  0.00000000  0.67731300  0.00000000  1
  F  F41  1  0.32268700  0.00000000  0.50000000  1
  F  F42  1  0.67731300  0.67731300  0.00000000  1
  F  F43  1  0.00000000  0.67731300  0.50000000  1
  F  F44  1  0.32268700  0.32268700  0.00000000  1
  F  F45  1  0.00000000  0.32268700  0.50000000  1
  F  F46  1  0.32268700  0.32268700  0.50000000  1
  F  F47  1  0.67731300  0.67731300  0.50000000  1
  F  F48  1  0.33333300  0.66666700  0.06714700  1
  F  F49  1  0.66666700  0.33333300  0.93285300  1
  F  F50  1  0.66666700  0.33333300  0.56714700  1
  F  F51  1  0.33333300  0.66666700  0.43285300  1
  F  F52  1  0.51472600  0.02945300  0.64497000  1
  F  F53  1  0.48527400  0.97054700  0.35503000  1
  F  F54  1  0.97054700  0.48527400  0.64497000  1
  F  F55  1  0.48527400  0.97054700  0.14497000  1
  F  F56  1  0.02945300  0.51472600  0.35503000  1
  F  F57  1  0.51472600  0.02945300  0.85503000  1
  F  F58  1  0.51472600  0.48527400  0.64497000  1
  F  F59  1  0.02945300  0.51472600  0.14497000  1
  F  F60  1  0.48527400  0.51472600  0.35503000  1
  F  F61  1  0.97054700  0.48527400  0.85503000  1
  F  F62  1  0.48527400  0.51472600  0.14497000  1
  F  F63  1  0.51472600  0.48527400  0.85503000  1
