# generated using pymatgen
data_Yb3(CuGe)4
_symmetry_space_group_name_H-M   'P 1'
_cell_length_a   7.94548212
_cell_length_b   7.94548212
_cell_length_c   7.94548212
_cell_angle_alpha   149.16876947
_cell_angle_beta   130.39234250
_cell_angle_gamma   59.55581350
_symmetry_Int_Tables_number   1
_chemical_formula_structural   Yb3(CuGe)4
_chemical_formula_sum   'Yb3 Cu4 Ge4'
_cell_volume   194.20031291
_cell_formula_units_Z   1
loop_
 _symmetry_equiv_pos_site_id
 _symmetry_equiv_pos_as_xyz
  1  'x, y, z'
loop_
 _atom_site_type_symbol
 _atom_site_label
 _atom_site_symmetry_multiplicity
 _atom_site_fract_x
 _atom_site_fract_y
 _atom_site_fract_z
 _atom_site_occupancy
  Yb  Yb0  1  0.50000000  0.00000000  0.50000000  1
  Yb  Yb1  1  0.86905500  0.86905500  0.00000000  1
  Yb  Yb2  1  0.13094500  0.13094500  0.00000000  1
  Cu  Cu3  1  0.48022300  0.67044900  0.80977400  1
  Cu  Cu4  1  0.86067500  0.67044900  0.19022600  1
  Cu  Cu5  1  0.13932500  0.32955100  0.80977400  1
  Cu  Cu6  1  0.51977700  0.32955100  0.19022600  1
  Ge  Ge7  1  0.28222000  0.78222000  0.50000000  1
  Ge  Ge8  1  0.71778000  0.21778000  0.50000000  1
  Ge  Ge9  1  0.81444400  0.50000000  0.31444400  1
  Ge  Ge10  1  0.18555600  0.50000000  0.68555600  1
