# generated using pymatgen
data_U2InPt2
_symmetry_space_group_name_H-M   'P 1'
_cell_length_a   7.82605300
_cell_length_b   7.82605300
_cell_length_c   3.63188200
_cell_angle_alpha   90.00000000
_cell_angle_beta   90.00000000
_cell_angle_gamma   90.00000000
_symmetry_Int_Tables_number   1
_chemical_formula_structural   U2InPt2
_chemical_formula_sum   'U4 In2 Pt4'
_cell_volume   222.44226023
_cell_formula_units_Z   2
loop_
 _symmetry_equiv_pos_site_id
 _symmetry_equiv_pos_as_xyz
  1  'x, y, z'
loop_
 _atom_site_type_symbol
 _atom_site_label
 _atom_site_symmetry_multiplicity
 _atom_site_fract_x
 _atom_site_fract_y
 _atom_site_fract_z
 _atom_site_occupancy
  U  U0  1  0.16795800  0.33204200  0.00000000  1
  U  U1  1  0.83204200  0.66795800  0.00000000  1
  U  U2  1  0.66795800  0.16795800  0.00000000  1
  U  U3  1  0.33204200  0.83204200  0.00000000  1
  In  In4  1  0.00000000  0.00000000  0.50000000  1
  In  In5  1  0.50000000  0.50000000  0.50000000  1
  Pt  Pt6  1  0.36637700  0.13362300  0.50000000  1
  Pt  Pt7  1  0.63362300  0.86637700  0.50000000  1
  Pt  Pt8  1  0.86637700  0.36637700  0.50000000  1
  Pt  Pt9  1  0.13362300  0.63362300  0.50000000  1
