# generated using pymatgen
data_Na3Si17
_symmetry_space_group_name_H-M   'P 1'
_cell_length_a   10.46544765
_cell_length_b   10.46544765
_cell_length_c   10.46544765
_cell_angle_alpha   60.00000000
_cell_angle_beta   60.00000000
_cell_angle_gamma   60.00000000
_symmetry_Int_Tables_number   1
_chemical_formula_structural   Na3Si17
_chemical_formula_sum   'Na6 Si34'
_cell_volume   810.51009943
_cell_formula_units_Z   2
loop_
 _symmetry_equiv_pos_site_id
 _symmetry_equiv_pos_as_xyz
  1  'x, y, z'
loop_
 _atom_site_type_symbol
 _atom_site_label
 _atom_site_symmetry_multiplicity
 _atom_site_fract_x
 _atom_site_fract_y
 _atom_site_fract_z
 _atom_site_occupancy
  Na  Na0  1  0.25000000  0.25000000  0.25000000  1
  Na  Na1  1  0.00000000  0.00000000  0.00000000  1
  Na  Na2  1  0.12500000  0.62500000  0.62500000  1
  Na  Na3  1  0.62500000  0.12500000  0.62500000  1
  Na  Na4  1  0.62500000  0.62500000  0.12500000  1
  Na  Na5  1  0.62500000  0.62500000  0.62500000  1
  Si  Si6  1  0.50000000  0.50000000  0.50000000  1
  Si  Si7  1  0.75000000  0.75000000  0.75000000  1
  Si  Si8  1  0.77946600  0.40684500  0.40684500  1
  Si  Si9  1  0.40684500  0.77946600  0.40684500  1
  Si  Si10  1  0.40684500  0.40684500  0.77946600  1
  Si  Si11  1  0.40684500  0.40684500  0.40684500  1
  Si  Si12  1  0.47053400  0.84315500  0.84315500  1
  Si  Si13  1  0.84315500  0.47053400  0.84315500  1
  Si  Si14  1  0.84315500  0.84315500  0.47053400  1
  Si  Si15  1  0.84315500  0.84315500  0.84315500  1
  Si  Si16  1  0.86065400  0.25380300  0.25380300  1
  Si  Si17  1  0.25380300  0.86065400  0.63174100  1
  Si  Si18  1  0.25380300  0.63174100  0.86065400  1
  Si  Si19  1  0.63174100  0.25380300  0.25380300  1
  Si  Si20  1  0.25380300  0.25380300  0.86065400  1
  Si  Si21  1  0.86065400  0.63174100  0.25380300  1
  Si  Si22  1  0.63174100  0.86065400  0.25380300  1
  Si  Si23  1  0.25380300  0.25380300  0.63174100  1
  Si  Si24  1  0.25380300  0.86065400  0.25380300  1
  Si  Si25  1  0.63174100  0.25380300  0.86065400  1
  Si  Si26  1  0.86065400  0.25380300  0.63174100  1
  Si  Si27  1  0.25380300  0.63174100  0.25380300  1
  Si  Si28  1  0.38934600  0.99619700  0.99619700  1
  Si  Si29  1  0.99619700  0.38934600  0.61825900  1
  Si  Si30  1  0.99619700  0.61825900  0.38934600  1
  Si  Si31  1  0.61825900  0.99619700  0.99619700  1
  Si  Si32  1  0.99619700  0.99619700  0.38934600  1
  Si  Si33  1  0.38934600  0.61825900  0.99619700  1
  Si  Si34  1  0.61825900  0.38934600  0.99619700  1
  Si  Si35  1  0.99619700  0.99619700  0.61825900  1
  Si  Si36  1  0.99619700  0.38934600  0.99619700  1
  Si  Si37  1  0.61825900  0.99619700  0.38934600  1
  Si  Si38  1  0.38934600  0.99619700  0.61825900  1
  Si  Si39  1  0.99619700  0.61825900  0.99619700  1
