# generated using pymatgen
data_Nd4Rh
_symmetry_space_group_name_H-M   'P 1'
_cell_length_a   10.02622200
_cell_length_b   6.48629300
_cell_length_c   7.29104812
_cell_angle_alpha   89.53017402
_cell_angle_beta   90.00000000
_cell_angle_gamma   90.00000000
_symmetry_Int_Tables_number   1
_chemical_formula_structural   Nd4Rh
_chemical_formula_sum   'Nd12 Rh3'
_cell_volume   474.14289047
_cell_formula_units_Z   3
loop_
 _symmetry_equiv_pos_site_id
 _symmetry_equiv_pos_as_xyz
  1  'x, y, z'
loop_
 _atom_site_type_symbol
 _atom_site_label
 _atom_site_symmetry_multiplicity
 _atom_site_fract_x
 _atom_site_fract_y
 _atom_site_fract_z
 _atom_site_occupancy
  Nd  Nd0  1  0.00000000  0.15584000  0.47515400  1
  Nd  Nd1  1  0.00000000  0.35198700  0.96070800  1
  Nd  Nd2  1  0.50000000  0.86048900  0.53515000  1
  Nd  Nd3  1  0.50000000  0.65193200  0.03347900  1
  Nd  Nd4  1  0.18295300  0.66697900  0.31876000  1
  Nd  Nd5  1  0.81932200  0.84090200  0.82172100  1
  Nd  Nd6  1  0.68618500  0.33775100  0.67775900  1
  Nd  Nd7  1  0.31966700  0.17511700  0.17906700  1
  Nd  Nd8  1  0.31381500  0.33775100  0.67775900  1
  Nd  Nd9  1  0.68033300  0.17511700  0.17906700  1
  Nd  Nd10  1  0.81704700  0.66697900  0.31876000  1
  Nd  Nd11  1  0.18067800  0.84090200  0.82172100  1
  Rh  Rh12  1  0.00000000  0.57992300  0.61622800  1
  Rh  Rh13  1  0.50000000  0.07630800  0.88019800  1
  Rh  Rh14  1  0.50000000  0.44002300  0.38246900  1
