# generated using pymatgen
data_Nd4In21Pd10
_symmetry_space_group_name_H-M   'P 1'
_cell_length_a   11.90520184
_cell_length_b   11.90520184
_cell_length_c   17.48899101
_cell_angle_alpha   56.89156468
_cell_angle_beta   56.89156468
_cell_angle_gamma   21.97591229
_symmetry_Int_Tables_number   1
_chemical_formula_structural   Nd4In21Pd10
_chemical_formula_sum   'Nd4 In21 Pd10'
_cell_volume   770.74153581
_cell_formula_units_Z   1
loop_
 _symmetry_equiv_pos_site_id
 _symmetry_equiv_pos_as_xyz
  1  'x, y, z'
loop_
 _atom_site_type_symbol
 _atom_site_label
 _atom_site_symmetry_multiplicity
 _atom_site_fract_x
 _atom_site_fract_y
 _atom_site_fract_z
 _atom_site_occupancy
  Nd  Nd0  1  0.22972900  0.22972900  0.67384300  1
  Nd  Nd1  1  0.77027100  0.77027100  0.32615700  1
  Nd  Nd2  1  0.87822200  0.87822200  0.83306500  1
  Nd  Nd3  1  0.12177800  0.12177800  0.16693500  1
  In  In4  1  0.50000000  0.50000000  0.00000000  1
  In  In5  1  0.11514700  0.11514700  0.94931600  1
  In  In6  1  0.88485300  0.88485300  0.05068400  1
  In  In7  1  0.45785200  0.45785200  0.86775900  1
  In  In8  1  0.54214800  0.54214800  0.13224100  1
  In  In9  1  0.06396500  0.06396500  0.70286600  1
  In  In10  1  0.93603500  0.93603500  0.29713400  1
  In  In11  1  0.36855300  0.36855300  0.70004200  1
  In  In12  1  0.63144700  0.63144700  0.29995800  1
  In  In13  1  0.98913800  0.98913800  0.59389700  1
  In  In14  1  0.01086200  0.01086200  0.40610300  1
  In  In15  1  0.74897900  0.74897900  0.79456500  1
  In  In16  1  0.25102100  0.25102100  0.20543500  1
  In  In17  1  0.61583000  0.61583000  0.79572300  1
  In  In18  1  0.38417000  0.38417000  0.20427700  1
  In  In19  1  0.60145300  0.60145300  0.50371500  1
  In  In20  1  0.39854700  0.39854700  0.49628500  1
  In  In21  1  0.20189500  0.20189500  0.49555300  1
  In  In22  1  0.79810500  0.79810500  0.50444700  1
  In  In23  1  0.70108000  0.70108000  0.99946300  1
  In  In24  1  0.29892000  0.29892000  0.00053700  1
  Pd  Pd25  1  0.25014200  0.25014200  0.88537800  1
  Pd  Pd26  1  0.74985800  0.74985800  0.11462200  1
  Pd  Pd27  1  0.02521100  0.02521100  0.88792600  1
  Pd  Pd28  1  0.97478900  0.97478900  0.11207400  1
  Pd  Pd29  1  0.65367700  0.65367700  0.61414300  1
  Pd  Pd30  1  0.34632300  0.34632300  0.38585700  1
  Pd  Pd31  1  0.86198000  0.86198000  0.60725900  1
  Pd  Pd32  1  0.13802000  0.13802000  0.39274100  1
  Pd  Pd33  1  0.49418200  0.49418200  0.68737700  1
  Pd  Pd34  1  0.50581800  0.50581800  0.31262300  1
