# generated using pymatgen
data_VPbOF5
_symmetry_space_group_name_H-M   'P 1'
_cell_length_a   5.02995600
_cell_length_b   9.48789400
_cell_length_c   9.99256700
_cell_angle_alpha   90.00000000
_cell_angle_beta   90.00000000
_cell_angle_gamma   90.00000000
_symmetry_Int_Tables_number   1
_chemical_formula_structural   VPbOF5
_chemical_formula_sum   'V4 Pb4 O4 F20'
_cell_volume   476.88216334
_cell_formula_units_Z   4
loop_
 _symmetry_equiv_pos_site_id
 _symmetry_equiv_pos_as_xyz
  1  'x, y, z'
loop_
 _atom_site_type_symbol
 _atom_site_label
 _atom_site_symmetry_multiplicity
 _atom_site_fract_x
 _atom_site_fract_y
 _atom_site_fract_z
 _atom_site_occupancy
  V  V0  1  0.10653400  0.25000000  0.44815900  1
  V  V1  1  0.89346600  0.75000000  0.55184100  1
  V  V2  1  0.10653400  0.75000000  0.05184100  1
  V  V3  1  0.89346600  0.25000000  0.94815900  1
  Pb  Pb4  1  0.44690500  0.00000000  0.75000000  1
  Pb  Pb5  1  0.55309500  0.50000000  0.25000000  1
  Pb  Pb6  1  0.55309500  0.00000000  0.25000000  1
  Pb  Pb7  1  0.44690500  0.50000000  0.75000000  1
  O  O8  1  0.86374700  0.25000000  0.55229700  1
  O  O9  1  0.13625300  0.75000000  0.44770300  1
  O  O10  1  0.86374700  0.75000000  0.94770300  1
  O  O11  1  0.13625300  0.25000000  0.05229700  1
  F  F12  1  0.56371100  0.75000000  0.69017100  1
  F  F13  1  0.43628900  0.25000000  0.30982900  1
  F  F14  1  0.56371100  0.25000000  0.80982900  1
  F  F15  1  0.43628900  0.75000000  0.19017100  1
  F  F16  1  0.01889000  0.11254800  0.82954500  1
  F  F17  1  0.98111000  0.61254800  0.17045500  1
  F  F18  1  0.01889000  0.88745200  0.67045500  1
  F  F19  1  0.98111000  0.38745200  0.32954500  1
  F  F20  1  0.98111000  0.88745200  0.17045500  1
  F  F21  1  0.01889000  0.38745200  0.82954500  1
  F  F22  1  0.98111000  0.11254800  0.32954500  1
  F  F23  1  0.01889000  0.61254800  0.67045500  1
  F  F24  1  0.31591800  0.11094800  0.52976600  1
  F  F25  1  0.68408200  0.61094800  0.47023400  1
  F  F26  1  0.31591800  0.88905200  0.97023400  1
  F  F27  1  0.68408200  0.38905200  0.02976600  1
  F  F28  1  0.68408200  0.88905200  0.47023400  1
  F  F29  1  0.31591800  0.38905200  0.52976600  1
  F  F30  1  0.68408200  0.11094800  0.02976600  1
  F  F31  1  0.31591800  0.61094800  0.97023400  1
