# generated using pymatgen
data_CrB2(PbO2)6
_symmetry_space_group_name_H-M   'P 1'
_cell_length_a   6.57327100
_cell_length_b   11.94938900
_cell_length_c   18.60945600
_cell_angle_alpha   90.00000000
_cell_angle_beta   90.00000000
_cell_angle_gamma   90.00000000
_symmetry_Int_Tables_number   1
_chemical_formula_structural   CrB2(PbO2)6
_chemical_formula_sum   'Cr4 B8 Pb24 O48'
_cell_volume   1461.70897896
_cell_formula_units_Z   4
loop_
 _symmetry_equiv_pos_site_id
 _symmetry_equiv_pos_as_xyz
  1  'x, y, z'
loop_
 _atom_site_type_symbol
 _atom_site_label
 _atom_site_symmetry_multiplicity
 _atom_site_fract_x
 _atom_site_fract_y
 _atom_site_fract_z
 _atom_site_occupancy
  Cr  Cr0  1  0.74160700  0.25000000  0.00463800  1
  Cr  Cr1  1  0.24160700  0.25000000  0.49536200  1
  Cr  Cr2  1  0.25839300  0.75000000  0.99536200  1
  Cr  Cr3  1  0.75839300  0.75000000  0.50463800  1
  B  B4  1  0.54305300  0.49795600  0.74604900  1
  B  B5  1  0.04305300  0.00204400  0.75395100  1
  B  B6  1  0.45694700  0.99795600  0.25395100  1
  B  B7  1  0.95694700  0.50204400  0.24604900  1
  B  B8  1  0.45694700  0.50204400  0.25395100  1
  B  B9  1  0.95694700  0.99795600  0.24604900  1
  B  B10  1  0.54305300  0.00204400  0.74604900  1
  B  B11  1  0.04305300  0.49795600  0.75395100  1
  Pb  Pb12  1  0.70674300  0.09390600  0.39303700  1
  Pb  Pb13  1  0.20674300  0.40609400  0.10696300  1
  Pb  Pb14  1  0.29325700  0.59390600  0.60696300  1
  Pb  Pb15  1  0.79325700  0.90609400  0.89303700  1
  Pb  Pb16  1  0.29325700  0.90609400  0.60696300  1
  Pb  Pb17  1  0.79325700  0.59390600  0.89303700  1
  Pb  Pb18  1  0.70674300  0.40609400  0.39303700  1
  Pb  Pb19  1  0.20674300  0.09390600  0.10696300  1
  Pb  Pb20  1  0.18671400  0.59367200  0.39208300  1
  Pb  Pb21  1  0.68671400  0.90632800  0.10791700  1
  Pb  Pb22  1  0.81328600  0.09367200  0.60791700  1
  Pb  Pb23  1  0.31328600  0.40632800  0.89208300  1
  Pb  Pb24  1  0.81328600  0.40632800  0.60791700  1
  Pb  Pb25  1  0.31328600  0.09367200  0.89208300  1
  Pb  Pb26  1  0.18671400  0.90632800  0.39208300  1
  Pb  Pb27  1  0.68671400  0.59367200  0.10791700  1
  Pb  Pb28  1  0.85883900  0.25000000  0.79688400  1
  Pb  Pb29  1  0.35883900  0.25000000  0.70311600  1
  Pb  Pb30  1  0.14116100  0.75000000  0.20311600  1
  Pb  Pb31  1  0.64116100  0.75000000  0.29688400  1
  Pb  Pb32  1  0.76107300  0.25000000  0.20887800  1
  Pb  Pb33  1  0.26107300  0.25000000  0.29112200  1
  Pb  Pb34  1  0.23892700  0.75000000  0.79112200  1
  Pb  Pb35  1  0.73892700  0.75000000  0.70887800  1
  O  O36  1  0.60269900  0.59352900  0.78192100  1
  O  O37  1  0.10269900  0.90647100  0.71807900  1
  O  O38  1  0.39730100  0.09352900  0.21807900  1
  O  O39  1  0.89730100  0.40647100  0.28192100  1
  O  O40  1  0.39730100  0.40647100  0.21807900  1
  O  O41  1  0.89730100  0.09352900  0.28192100  1
  O  O42  1  0.60269900  0.90647100  0.78192100  1
  O  O43  1  0.10269900  0.59352900  0.71807900  1
  O  O44  1  0.54117000  0.49493600  0.67074500  1
  O  O45  1  0.04117000  0.00506400  0.82925500  1
  O  O46  1  0.45883000  0.99493600  0.32925500  1
  O  O47  1  0.95883000  0.50506400  0.17074500  1
  O  O48  1  0.45883000  0.50506400  0.32925500  1
  O  O49  1  0.95883000  0.99493600  0.17074500  1
  O  O50  1  0.54117000  0.00506400  0.67074500  1
  O  O51  1  0.04117000  0.49493600  0.82925500  1
  O  O52  1  0.48458400  0.40216100  0.78303700  1
  O  O53  1  0.98458400  0.09783900  0.71696300  1
  O  O54  1  0.51541600  0.90216100  0.21696300  1
  O  O55  1  0.01541600  0.59783900  0.28303700  1
  O  O56  1  0.51541600  0.59783900  0.21696300  1
  O  O57  1  0.01541600  0.90216100  0.28303700  1
  O  O58  1  0.48458400  0.09783900  0.78303700  1
  O  O59  1  0.98458400  0.40216100  0.71696300  1
  O  O60  1  0.59821900  0.25000000  0.34098500  1
  O  O61  1  0.09821900  0.25000000  0.15901500  1
  O  O62  1  0.40178100  0.75000000  0.65901500  1
  O  O63  1  0.90178100  0.75000000  0.84098500  1
  O  O64  1  0.82039200  0.75000000  0.14958400  1
  O  O65  1  0.32039200  0.75000000  0.35041600  1
  O  O66  1  0.17960800  0.25000000  0.85041600  1
  O  O67  1  0.67960800  0.25000000  0.64958400  1
  O  O68  1  0.62199500  0.25000000  0.92378100  1
  O  O69  1  0.12199500  0.25000000  0.57621900  1
  O  O70  1  0.37800500  0.75000000  0.07621900  1
  O  O71  1  0.87800500  0.75000000  0.42378100  1
  O  O72  1  0.56535000  0.25000000  0.06947900  1
  O  O73  1  0.06535000  0.25000000  0.43052100  1
  O  O74  1  0.43465000  0.75000000  0.93052100  1
  O  O75  1  0.93465000  0.75000000  0.56947900  1
  O  O76  1  0.61381500  0.63584500  0.51215300  1
  O  O77  1  0.11381500  0.86415500  0.98784700  1
  O  O78  1  0.38618500  0.13584500  0.48784700  1
  O  O79  1  0.88618500  0.36415500  0.01215300  1
  O  O80  1  0.38618500  0.36415500  0.48784700  1
  O  O81  1  0.88618500  0.13584500  0.01215300  1
  O  O82  1  0.61381500  0.86415500  0.51215300  1
  O  O83  1  0.11381500  0.63584500  0.98784700  1
