# generated using pymatgen
data_Te3As2O11
_symmetry_space_group_name_H-M   'P 1'
_cell_length_a   6.68276779
_cell_length_b   7.83925564
_cell_length_c   10.66320939
_cell_angle_alpha   68.44911476
_cell_angle_beta   89.79038474
_cell_angle_gamma   77.51382830
_symmetry_Int_Tables_number   1
_chemical_formula_structural   Te3As2O11
_chemical_formula_sum   'Te6 As4 O22'
_cell_volume   505.51379790
_cell_formula_units_Z   2
loop_
 _symmetry_equiv_pos_site_id
 _symmetry_equiv_pos_as_xyz
  1  'x, y, z'
loop_
 _atom_site_type_symbol
 _atom_site_label
 _atom_site_symmetry_multiplicity
 _atom_site_fract_x
 _atom_site_fract_y
 _atom_site_fract_z
 _atom_site_occupancy
  Te  Te0  1  0.68738996  0.77096921  0.47836195  1
  Te  Te1  1  0.31261004  0.22903079  0.52163805  1
  Te  Te2  1  0.79307424  0.33736054  0.19997790  1
  Te  Te3  1  0.20692576  0.66263946  0.80002210  1
  Te  Te4  1  0.76747919  0.95026011  0.15932057  1
  Te  Te5  1  0.23252081  0.04973989  0.84067943  1
  As  As6  1  0.31524509  0.29281378  0.11209661  1
  As  As7  1  0.68475491  0.70718622  0.88790339  1
  As  As8  1  0.18876274  0.71991820  0.39405094  1
  As  As9  1  0.81123726  0.28008180  0.60594906  1
  O  O10  1  0.20200749  0.40793885  0.94599966  1
  O  O11  1  0.79799251  0.59206115  0.05400034  1
  O  O12  1  0.74222319  0.03756738  0.31116500  1
  O  O13  1  0.25777681  0.96243262  0.68883500  1
  O  O14  1  0.47456919  0.41520987  0.15257066  1
  O  O15  1  0.52543081  0.58479013  0.84742934  1
  O  O16  1  0.70278700  0.71746778  0.31659061  1
  O  O17  1  0.29721300  0.28253222  0.68340939  1
  O  O18  1  0.08607998  0.83831909  0.22964131  1
  O  O19  1  0.91392002  0.16168091  0.77035869  1
  O  O20  1  0.00592757  0.69308517  0.51256516  1
  O  O21  1  0.99407243  0.30691483  0.48743484  1
  O  O22  1  0.82911751  0.21741705  0.07170255  1
  O  O23  1  0.17088249  0.78258295  0.92829745  1
  O  O24  1  0.44409663  0.07566650  0.11477438  1
  O  O25  1  0.55590337  0.92433350  0.88522562  1
  O  O26  1  0.35063855  0.82937844  0.44521732  1
  O  O27  1  0.64936145  0.17062156  0.55478268  1
  O  O28  1  0.12880880  0.27942244  0.22477092  1
  O  O29  1  0.87119120  0.72057756  0.77522908  1
  O  O30  1  0.32331361  0.49740240  0.40545660  1
  O  O31  1  0.67668639  0.50259760  0.59454340  1
