# generated using pymatgen
data_NaVPO4F
_symmetry_space_group_name_H-M   'P 1'
_cell_length_a   6.37621600
_cell_length_b   10.79749800
_cell_length_c   12.88533500
_cell_angle_alpha   90.00000000
_cell_angle_beta   90.00000000
_cell_angle_gamma   90.00000000
_symmetry_Int_Tables_number   1
_chemical_formula_structural   NaVPO4F
_chemical_formula_sum   'Na8 V8 P8 O32 F8'
_cell_volume   887.11897176
_cell_formula_units_Z   8
loop_
 _symmetry_equiv_pos_site_id
 _symmetry_equiv_pos_as_xyz
  1  'x, y, z'
loop_
 _atom_site_type_symbol
 _atom_site_label
 _atom_site_symmetry_multiplicity
 _atom_site_fract_x
 _atom_site_fract_y
 _atom_site_fract_z
 _atom_site_occupancy
  Na  Na0  1  0.77345700  0.27838200  0.35571400  1
  Na  Na1  1  0.22654300  0.77838200  0.64428600  1
  Na  Na2  1  0.72654300  0.27838200  0.85571400  1
  Na  Na3  1  0.27345700  0.77838200  0.14428600  1
  Na  Na4  1  0.79416300  0.04785700  0.10339700  1
  Na  Na5  1  0.20583700  0.54785700  0.89660300  1
  Na  Na6  1  0.70583700  0.04785700  0.60339700  1
  Na  Na7  1  0.29416300  0.54785700  0.39660300  1
  V  V8  1  0.49919700  0.00635800  0.38275900  1
  V  V9  1  0.50080300  0.50635800  0.61724100  1
  V  V10  1  0.00080300  0.00635800  0.88275900  1
  V  V11  1  0.99919700  0.50635800  0.11724100  1
  V  V12  1  0.25057600  0.25090300  0.24149500  1
  V  V13  1  0.74942400  0.75090300  0.75850500  1
  V  V14  1  0.24942400  0.25090300  0.74149500  1
  V  V15  1  0.75057600  0.75090300  0.25850500  1
  P  P16  1  0.33934900  0.26416000  0.49168700  1
  P  P17  1  0.66065100  0.76416000  0.50831300  1
  P  P18  1  0.16065100  0.26416000  0.99168700  1
  P  P19  1  0.83934900  0.76416000  0.00831300  1
  P  P20  1  0.50167900  0.50533100  0.18288900  1
  P  P21  1  0.49832100  0.00533100  0.81711100  1
  P  P22  1  0.99832100  0.50533100  0.68288900  1
  P  P23  1  0.00167900  0.00533100  0.31711100  1
  O  O24  1  0.50457700  0.15933400  0.47721500  1
  O  O25  1  0.49542300  0.65933400  0.52278500  1
  O  O26  1  0.99542300  0.15933400  0.97721500  1
  O  O27  1  0.00457700  0.65933400  0.02278500  1
  O  O28  1  0.46744600  0.38762100  0.49847600  1
  O  O29  1  0.53255400  0.88762100  0.50152400  1
  O  O30  1  0.03255400  0.38762100  0.99847600  1
  O  O31  1  0.96744600  0.88762100  0.00152400  1
  O  O32  1  0.19233200  0.27431400  0.39591400  1
  O  O33  1  0.80766800  0.77431400  0.60408600  1
  O  O34  1  0.30766800  0.27431400  0.89591400  1
  O  O35  1  0.69233200  0.77431400  0.10408600  1
  O  O36  1  0.20513700  0.24058800  0.58914800  1
  O  O37  1  0.79486300  0.74058800  0.41085200  1
  O  O38  1  0.29486300  0.24058800  0.08914800  1
  O  O39  1  0.70513700  0.74058800  0.91085200  1
  O  O40  1  0.31039800  0.53389500  0.11310700  1
  O  O41  1  0.68960200  0.03389500  0.88689300  1
  O  O42  1  0.18960200  0.53389500  0.61310700  1
  O  O43  1  0.81039800  0.03389500  0.38689300  1
  O  O44  1  0.69278100  0.48848200  0.11250000  1
  O  O45  1  0.30721900  0.98848200  0.88750000  1
  O  O46  1  0.80721900  0.48848200  0.61250000  1
  O  O47  1  0.19278100  0.98848200  0.38750000  1
  O  O48  1  0.52880100  0.61728400  0.25917400  1
  O  O49  1  0.47119900  0.11728400  0.74082600  1
  O  O50  1  0.97119900  0.61728400  0.75917400  1
  O  O51  1  0.02880100  0.11728400  0.24082600  1
  O  O52  1  0.46333800  0.38979000  0.25288000  1
  O  O53  1  0.53666200  0.88979000  0.74712000  1
  O  O54  1  0.03666200  0.38979000  0.75288000  1
  O  O55  1  0.96333800  0.88979000  0.24712000  1
  F  F56  1  0.50941700  0.87275200  0.27302100  1
  F  F57  1  0.49058300  0.37275200  0.72697900  1
  F  F58  1  0.99058300  0.87275200  0.77302100  1
  F  F59  1  0.00941700  0.37275200  0.22697900  1
  F  F60  1  0.49148800  0.12794900  0.26137700  1
  F  F61  1  0.50851200  0.62794900  0.73862300  1
  F  F62  1  0.00851200  0.12794900  0.76137700  1
  F  F63  1  0.99148800  0.62794900  0.23862300  1
