# generated using pymatgen
data_Li2CoNi3O8
_symmetry_space_group_name_H-M   'P 1'
_cell_length_a   8.04552400
_cell_length_b   8.04552400
_cell_length_c   8.16431900
_cell_angle_alpha   90.00000000
_cell_angle_beta   90.00000000
_cell_angle_gamma   90.00000000
_symmetry_Int_Tables_number   1
_chemical_formula_structural   Li2CoNi3O8
_chemical_formula_sum   'Li8 Co4 Ni12 O32'
_cell_volume   528.48009535
_cell_formula_units_Z   4
loop_
 _symmetry_equiv_pos_site_id
 _symmetry_equiv_pos_as_xyz
  1  'x, y, z'
loop_
 _atom_site_type_symbol
 _atom_site_label
 _atom_site_symmetry_multiplicity
 _atom_site_fract_x
 _atom_site_fract_y
 _atom_site_fract_z
 _atom_site_occupancy
  Li  Li0  1  0.75247100  0.99891500  0.62598400  1
  Li  Li1  1  0.00108500  0.24752900  0.87401600  1
  Li  Li2  1  0.49891500  0.74752900  0.87598400  1
  Li  Li3  1  0.74752900  0.49891500  0.12401600  1
  Li  Li4  1  0.24752900  0.00108500  0.12598400  1
  Li  Li5  1  0.99891500  0.75247100  0.37401600  1
  Li  Li6  1  0.50108500  0.25247100  0.37598400  1
  Li  Li7  1  0.25247100  0.50108500  0.62401600  1
  Co  Co8  1  0.62740000  0.37260000  0.75000000  1
  Co  Co9  1  0.87260000  0.87260000  0.00000000  1
  Co  Co10  1  0.37260000  0.62740000  0.25000000  1
  Co  Co11  1  0.12740000  0.12740000  0.50000000  1
  Ni  Ni12  1  0.87673800  0.62201900  0.75347500  1
  Ni  Ni13  1  0.12598000  0.87402000  0.75000000  1
  Ni  Ni14  1  0.37798100  0.12326200  0.74652500  1
  Ni  Ni15  1  0.12201900  0.62326200  0.00347500  1
  Ni  Ni16  1  0.37402000  0.37402000  0.00000000  1
  Ni  Ni17  1  0.62326200  0.12201900  0.99652500  1
  Ni  Ni18  1  0.12326200  0.37798100  0.25347500  1
  Ni  Ni19  1  0.87402000  0.12598000  0.25000000  1
  Ni  Ni20  1  0.62201900  0.87673800  0.24652500  1
  Ni  Ni21  1  0.87798100  0.37673800  0.50347500  1
  Ni  Ni22  1  0.62598000  0.62598000  0.50000000  1
  Ni  Ni23  1  0.37673800  0.87798100  0.49652500  1
  O  O24  1  0.86610300  0.38971600  0.73501900  1
  O  O25  1  0.64377800  0.60713300  0.74894800  1
  O  O26  1  0.36285200  0.88872500  0.72916700  1
  O  O27  1  0.89000800  0.85586700  0.76603300  1
  O  O28  1  0.14413300  0.10999200  0.73396700  1
  O  O29  1  0.11127500  0.63714800  0.77083300  1
  O  O30  1  0.39286700  0.35622200  0.75105200  1
  O  O31  1  0.61028400  0.13389700  0.76498100  1
  O  O32  1  0.88971600  0.63389700  0.98501900  1
  O  O33  1  0.10713300  0.85622200  0.99894800  1
  O  O34  1  0.38872500  0.13714800  0.97916700  1
  O  O35  1  0.35586700  0.60999200  0.01603300  1
  O  O36  1  0.60999200  0.35586700  0.98396700  1
  O  O37  1  0.13714800  0.38872500  0.02083300  1
  O  O38  1  0.85622200  0.10713300  0.00105200  1
  O  O39  1  0.63389700  0.88971600  0.01498100  1
  O  O40  1  0.13389700  0.61028400  0.23501900  1
  O  O41  1  0.35622200  0.39286700  0.24894800  1
  O  O42  1  0.63714800  0.11127500  0.22916700  1
  O  O43  1  0.10999200  0.14413300  0.26603300  1
  O  O44  1  0.85586700  0.89000800  0.23396700  1
  O  O45  1  0.88872500  0.36285200  0.27083300  1
  O  O46  1  0.60713300  0.64377800  0.25105200  1
  O  O47  1  0.38971600  0.86610300  0.26498100  1
  O  O48  1  0.11028400  0.36610300  0.48501900  1
  O  O49  1  0.89286700  0.14377800  0.49894800  1
  O  O50  1  0.61127500  0.86285200  0.47916700  1
  O  O51  1  0.64413300  0.39000800  0.51603300  1
  O  O52  1  0.39000800  0.64413300  0.48396700  1
  O  O53  1  0.86285200  0.61127500  0.52083300  1
  O  O54  1  0.14377800  0.89286700  0.50105200  1
  O  O55  1  0.36610300  0.11028400  0.51498100  1
