# generated using pymatgen
data_KMo3(PO7)2
_symmetry_space_group_name_H-M   'P 1'
_cell_length_a   6.50784950
_cell_length_b   8.95416939
_cell_length_c   10.81614420
_cell_angle_alpha   111.11255889
_cell_angle_beta   90.00000000
_cell_angle_gamma   90.00000000
_symmetry_Int_Tables_number   1
_chemical_formula_structural   KMo3(PO7)2
_chemical_formula_sum   'K2 Mo6 P4 O28'
_cell_volume   587.97457304
_cell_formula_units_Z   2
loop_
 _symmetry_equiv_pos_site_id
 _symmetry_equiv_pos_as_xyz
  1  'x, y, z'
loop_
 _atom_site_type_symbol
 _atom_site_label
 _atom_site_symmetry_multiplicity
 _atom_site_fract_x
 _atom_site_fract_y
 _atom_site_fract_z
 _atom_site_occupancy
  O  O0  1  0.24999939  0.94738925  0.58014061  1
  O  O1  1  0.74999971  0.05261103  0.41985990  1
  O  O2  1  0.24999939  0.79396750  0.18101219  1
  O  O3  1  0.74999971  0.20603278  0.81898739  1
  O  O4  1  0.53477031  0.27526200  0.62997491  1
  O  O5  1  0.03476999  0.72473708  0.37002523  1
  O  O6  1  0.46522879  0.72473708  0.37002523  1
  O  O7  1  0.96522911  0.27526200  0.62997491  1
  O  O8  1  0.06140045  0.77988613  0.69146788  1
  O  O9  1  0.56140077  0.22011416  0.30853263  1
  O  O10  1  0.93860019  0.22011416  0.30853263  1
  O  O11  1  0.43859987  0.77988613  0.69146788  1
  O  O12  1  0.74999971  0.61769937  0.05206812  1
  O  O13  1  0.24999939  0.38230091  0.94793238  1
  O  O14  1  0.74999971  0.96506526  0.17210995  1
  O  O15  1  0.24999939  0.03493501  0.82788963  1
  O  O16  1  0.43852924  0.78566334  0.97556274  1
  O  O17  1  0.93852956  0.21433574  0.02443648  1
  O  O18  1  0.56147141  0.21433574  0.02443648  1
  O  O19  1  0.06147108  0.78566334  0.97556274  1
  O  O20  1  0.24999939  0.06570867  0.38488019  1
  O  O21  1  0.24999939  0.34314750  0.20110467  1
  O  O22  1  0.74999971  0.96020625  0.88621799  1
  O  O23  1  0.24999939  0.03979403  0.11378159  1
  O  O24  1  0.74999971  0.59516898  0.53137840  1
  O  O25  1  0.24999939  0.40483130  0.46862118  1
  O  O26  1  0.74999971  0.93429161  0.61511939  1
  O  O27  1  0.74999971  0.65685278  0.79889491  1
  P  P28  1  0.74999971  0.14495685  0.93515972  1
  P  P29  1  0.24999939  0.85504223  0.06484043  1
  P  P30  1  0.74999971  0.11117368  0.30125700  1
  P  P31  1  0.24999939  0.88882660  0.69874351  1
  K  K32  1  0.24999939  0.51141200  0.74764060  1
  K  K33  1  0.74999971  0.48858828  0.25235990  1
  Mo  Mo34  1  0.24999939  0.84046593  0.37792994  1
  Mo  Mo35  1  0.74999971  0.15953435  0.62206964  1
  Mo  Mo36  1  0.24999939  0.23994369  0.32579482  1
  Mo  Mo37  1  0.74999971  0.76005659  0.67420476  1
  Mo  Mo38  1  0.24999939  0.22733278  0.00474778  1
  Mo  Mo39  1  0.74999971  0.77266750  0.99525272  1
