# generated using pymatgen
data_YbGa7Au3
_symmetry_space_group_name_H-M   'P 1'
_cell_length_a   8.56858373
_cell_length_b   8.56858373
_cell_length_c   8.56858357
_cell_angle_alpha   57.62889472
_cell_angle_beta   57.62889472
_cell_angle_gamma   57.62889602
_symmetry_Int_Tables_number   1
_chemical_formula_structural   YbGa7Au3
_chemical_formula_sum   'Yb2 Ga14 Au6'
_cell_volume   420.60530299
_cell_formula_units_Z   2
loop_
 _symmetry_equiv_pos_site_id
 _symmetry_equiv_pos_as_xyz
  1  'x, y, z'
loop_
 _atom_site_type_symbol
 _atom_site_label
 _atom_site_symmetry_multiplicity
 _atom_site_fract_x
 _atom_site_fract_y
 _atom_site_fract_z
 _atom_site_occupancy
  Yb  Yb0  1  0.50000000  0.50000000  0.50000000  1
  Yb  Yb1  1  0.00000000  0.00000000  0.00000000  1
  Ga  Ga2  1  0.14686900  0.92706100  0.33054200  1
  Ga  Ga3  1  0.33054200  0.14686900  0.92706100  1
  Ga  Ga4  1  0.92706100  0.33054200  0.14686900  1
  Ga  Ga5  1  0.35313100  0.16945800  0.57293900  1
  Ga  Ga6  1  0.57293900  0.35313100  0.16945800  1
  Ga  Ga7  1  0.16945800  0.57293900  0.35313100  1
  Ga  Ga8  1  0.85313100  0.07293900  0.66945800  1
  Ga  Ga9  1  0.66945800  0.85313100  0.07293900  1
  Ga  Ga10  1  0.75000000  0.75000000  0.75000000  1
  Ga  Ga11  1  0.25000000  0.25000000  0.25000000  1
  Ga  Ga12  1  0.83054200  0.42706100  0.64686900  1
  Ga  Ga13  1  0.42706100  0.64686900  0.83054200  1
  Ga  Ga14  1  0.64686900  0.83054200  0.42706100  1
  Ga  Ga15  1  0.07293900  0.66945800  0.85313100  1
  Au  Au16  1  0.93179100  0.56820900  0.25000000  1
  Au  Au17  1  0.75000000  0.06820900  0.43179100  1
  Au  Au18  1  0.43179100  0.75000000  0.06820900  1
  Au  Au19  1  0.06820900  0.43179100  0.75000000  1
  Au  Au20  1  0.56820900  0.25000000  0.93179100  1
  Au  Au21  1  0.25000000  0.93179100  0.56820900  1
