# generated using pymatgen
data_Ta2O5
_symmetry_space_group_name_H-M   'P 1'
_cell_length_a   3.87120601
_cell_length_b   3.90443473
_cell_length_c   13.12844843
_cell_angle_alpha   90.00002071
_cell_angle_beta   89.99996102
_cell_angle_gamma   90.00000113
_symmetry_Int_Tables_number   1
_chemical_formula_structural   Ta2O5
_chemical_formula_sum   'Ta4 O10'
_cell_volume   198.43480712
_cell_formula_units_Z   2
loop_
 _symmetry_equiv_pos_site_id
 _symmetry_equiv_pos_as_xyz
  1  'x, y, z'
loop_
 _atom_site_type_symbol
 _atom_site_label
 _atom_site_symmetry_multiplicity
 _atom_site_fract_x
 _atom_site_fract_y
 _atom_site_fract_z
 _atom_site_occupancy
  Ta  Ta0  1  0.01857094  0.97667415  0.14583151  1
  Ta  Ta1  1  0.51857072  0.02332391  0.35416698  1
  Ta  Ta2  1  0.51856990  0.02332107  0.64583123  1
  Ta  Ta3  1  0.01856999  0.97668056  0.85416912  1
  O  O4  1  0.51857325  0.99833356  0.18497788  1
  O  O5  1  0.01857291  0.00166080  0.31502258  1
  O  O6  1  0.01857193  0.00166386  0.68497730  1
  O  O7  1  0.51857170  0.99834070  0.81502178  1
  O  O8  1  0.01856644  0.49302217  0.85153801  1
  O  O9  1  0.51856799  0.50697237  0.64846154  1
  O  O10  1  0.51856830  0.50697741  0.35153818  1
  O  O11  1  0.51857361  0.00503785  0.49999995  1
  O  O12  1  0.01857400  0.99496250  0.99999946  1
  O  O13  1  0.01856930  0.49302709  0.14846149  1
