# generated using pymatgen
data_RbBaMnO4
_symmetry_space_group_name_H-M   'P 1'
_cell_length_a   5.98627091
_cell_length_b   8.01923312
_cell_length_c   10.50710663
_cell_angle_alpha   90.00000000
_cell_angle_beta   90.00000000
_cell_angle_gamma   90.00000000
_symmetry_Int_Tables_number   1
_chemical_formula_structural   RbBaMnO4
_chemical_formula_sum   'Rb4 Ba4 Mn4 O16'
_cell_volume   504.39682636
_cell_formula_units_Z   4
loop_
 _symmetry_equiv_pos_site_id
 _symmetry_equiv_pos_as_xyz
  1  'x, y, z'
loop_
 _atom_site_type_symbol
 _atom_site_label
 _atom_site_symmetry_multiplicity
 _atom_site_fract_x
 _atom_site_fract_y
 _atom_site_fract_z
 _atom_site_occupancy
  O  O0  1  0.51204193  0.70866837  0.33668615  1
  O  O1  1  0.01204298  0.29133085  0.66331348  1
  O  O2  1  0.98795826  0.20866939  0.16331319  1
  O  O3  1  0.48795764  0.79133108  0.83668645  1
  O  O4  1  0.48795764  0.29133085  0.66331348  1
  O  O5  1  0.98795826  0.70866837  0.33668615  1
  O  O6  1  0.01204298  0.79133108  0.83668645  1
  O  O7  1  0.51204193  0.20866939  0.16331319  1
  O  O8  1  0.25000031  0.51492207  0.92341002  1
  O  O9  1  0.74999926  0.48507840  0.07658962  1
  O  O10  1  0.25000031  0.01492184  0.57658992  1
  O  O11  1  0.74999926  0.98507863  0.42341067  1
  O  O12  1  0.74999926  0.19493898  0.93107696  1
  O  O13  1  0.25000031  0.80506149  0.06892268  1
  O  O14  1  0.25000031  0.30506126  0.43107762  1
  O  O15  1  0.74999926  0.69493796  0.56892297  1
  Mn  Mn16  1  0.74999926  0.77149293  0.41515133  1
  Mn  Mn17  1  0.25000031  0.22850629  0.58484926  1
  Mn  Mn18  1  0.74999926  0.27149394  0.08484896  1
  Mn  Mn19  1  0.25000031  0.72850652  0.91515163  1
  Rb  Rb20  1  0.25000031  0.65542005  0.58209087  1
  Rb  Rb21  1  0.74999926  0.34458041  0.41790876  1
  Rb  Rb22  1  0.74999926  0.84458065  0.08209153  1
  Rb  Rb23  1  0.25000031  0.15541982  0.91790906  1
  Ba  Ba24  1  0.74999926  0.00218225  0.69182222  1
  Ba  Ba25  1  0.25000031  0.99781822  0.30817742  1
  Ba  Ba26  1  0.74999926  0.50218124  0.80817771  1
  Ba  Ba27  1  0.25000031  0.49781798  0.19182192  1
