# generated using pymatgen
data_Pr2Fe12P7
_symmetry_space_group_name_H-M   'P 1'
_cell_length_a   3.69475300
_cell_length_b   9.07442123
_cell_length_c   9.07423269
_cell_angle_alpha   120.07226796
_cell_angle_beta   90.00000000
_cell_angle_gamma   90.00000000
_symmetry_Int_Tables_number   1
_chemical_formula_structural   Pr2Fe12P7
_chemical_formula_sum   'Pr2 Fe12 P7'
_cell_volume   263.28624236
_cell_formula_units_Z   1
loop_
 _symmetry_equiv_pos_site_id
 _symmetry_equiv_pos_as_xyz
  1  'x, y, z'
loop_
 _atom_site_type_symbol
 _atom_site_label
 _atom_site_symmetry_multiplicity
 _atom_site_fract_x
 _atom_site_fract_y
 _atom_site_fract_z
 _atom_site_occupancy
  Pr  Pr0  1  0.00000000  0.66693400  0.33321300  1
  Pr  Pr1  1  0.50000000  0.33297900  0.66677600  1
  Fe  Fe2  1  0.00000000  0.36928600  0.94527600  1
  Fe  Fe3  1  0.00000000  0.05497400  0.42394700  1
  Fe  Fe4  1  0.00000000  0.57501400  0.62972500  1
  Fe  Fe5  1  0.00000000  0.87948700  0.72839900  1
  Fe  Fe6  1  0.00000000  0.27237700  0.15187000  1
  Fe  Fe7  1  0.00000000  0.84855100  0.12027700  1
  Fe  Fe8  1  0.50000000  0.95212600  0.56991700  1
  Fe  Fe9  1  0.50000000  0.42981400  0.38217100  1
  Fe  Fe10  1  0.50000000  0.61831000  0.04793400  1
  Fe  Fe11  1  0.50000000  0.11709200  0.90320400  1
  Fe  Fe12  1  0.50000000  0.09696400  0.21439000  1
  Fe  Fe13  1  0.50000000  0.78615700  0.88319500  1
  P  P14  1  0.00000000  0.10549100  0.69981700  1
  P  P15  1  0.00000000  0.29776500  0.40494300  1
  P  P16  1  0.00000000  0.59447600  0.89393600  1
  P  P17  1  0.50000000  0.71162600  0.60501000  1
  P  P18  1  0.50000000  0.39539600  0.10555700  1
  P  P19  1  0.50000000  0.89479800  0.28998100  1
  P  P20  1  0.00000000  0.00038000  0.00046000  1
