# generated using pymatgen
data_CsNa5(FeO3)2
_symmetry_space_group_name_H-M   'P 1'
_cell_length_a   12.12887861
_cell_length_b   12.10470115
_cell_length_c   9.31787699
_cell_angle_alpha   67.52443616
_cell_angle_beta   67.24995853
_cell_angle_gamma   45.22560530
_symmetry_Int_Tables_number   1
_chemical_formula_structural   CsNa5(FeO3)2
_chemical_formula_sum   'Cs4 Na20 Fe8 O24'
_cell_volume   882.86746651
_cell_formula_units_Z   4
loop_
 _symmetry_equiv_pos_site_id
 _symmetry_equiv_pos_as_xyz
  1  'x, y, z'
loop_
 _atom_site_type_symbol
 _atom_site_label
 _atom_site_symmetry_multiplicity
 _atom_site_fract_x
 _atom_site_fract_y
 _atom_site_fract_z
 _atom_site_occupancy
  Cs  Cs0  1  0.62816600  0.12112000  0.08648800  1
  Cs  Cs1  1  0.12112000  0.62816600  0.16422600  1
  Cs  Cs2  1  0.16351200  0.08577400  0.62183400  1
  Cs  Cs3  1  0.08577400  0.16351200  0.12888000  1
  Na  Na4  1  0.98754900  0.98754900  0.51245100  1
  Na  Na5  1  0.25733200  0.25733200  0.74266800  1
  Na  Na6  1  0.50733200  0.50733200  0.99266800  1
  Na  Na7  1  0.73754900  0.73754900  0.26245100  1
  Na  Na8  1  0.22501400  0.74990300  0.75956900  1
  Na  Na9  1  0.51451300  0.99875800  0.49061500  1
  Na  Na10  1  0.74990300  0.22501400  0.26551400  1
  Na  Na11  1  0.99875800  0.51451300  0.99611500  1
  Na  Na12  1  0.25388500  0.75938500  0.25124200  1
  Na  Na13  1  0.49043100  0.98448600  0.02498600  1
  Na  Na14  1  0.75938500  0.25388500  0.73548700  1
  Na  Na15  1  0.98448600  0.49043100  0.50009700  1
  Na  Na16  1  0.25180100  0.25180100  0.24819900  1
  Na  Na17  1  0.00180100  0.00180100  0.99819900  1
  Na  Na18  1  0.49555500  0.49555500  0.50444500  1
  Na  Na19  1  0.74555500  0.74555500  0.75444500  1
  Na  Na20  1  0.63140800  0.55727800  0.15350000  1
  Na  Na21  1  0.55727800  0.63140800  0.65781300  1
  Na  Na22  1  0.09650000  0.59218700  0.61859200  1
  Na  Na23  1  0.59218700  0.09650000  0.69272200  1
  Fe  Fe24  1  0.41708500  0.82544200  0.33886100  1
  Fe  Fe25  1  0.42561500  0.83385800  0.91199400  1
  Fe  Fe26  1  0.82544200  0.41708500  0.41861200  1
  Fe  Fe27  1  0.83385800  0.42561500  0.82853300  1
  Fe  Fe28  1  0.42146700  0.33800600  0.41614200  1
  Fe  Fe29  1  0.91113900  0.83138800  0.83291500  1
  Fe  Fe30  1  0.33800600  0.42146700  0.82438500  1
  Fe  Fe31  1  0.83138800  0.91113900  0.42455800  1
  O  O32  1  0.61715800  0.61715800  0.38284200  1
  O  O33  1  0.62673600  0.62673600  0.87326400  1
  O  O34  1  0.37673600  0.37673600  0.62326400  1
  O  O35  1  0.86715800  0.86715800  0.63284200  1
  O  O36  1  0.40811600  0.83479000  0.12818800  1
  O  O37  1  0.83479000  0.40811600  0.62890500  1
  O  O38  1  0.62109500  0.12181200  0.41521000  1
  O  O39  1  0.12181200  0.62109500  0.84188400  1
  O  O40  1  0.82662000  0.27904000  0.98975500  1
  O  O41  1  0.97616200  0.42695100  0.27016700  1
  O  O42  1  0.27904000  0.82662000  0.90458500  1
  O  O43  1  0.42695100  0.97616200  0.32672100  1
  O  O44  1  0.92327900  0.97983300  0.82304900  1
  O  O45  1  0.26024500  0.34541500  0.42338000  1
  O  O46  1  0.97983300  0.92327900  0.27383800  1
  O  O47  1  0.34541500  0.26024500  0.97096000  1
  O  O48  1  0.76508800  0.81860000  0.98715500  1
  O  O49  1  0.45276800  0.47657300  0.26736600  1
  O  O50  1  0.81860000  0.76508800  0.42915700  1
  O  O51  1  0.47657300  0.45276800  0.80329300  1
  O  O52  1  0.44670700  0.98263400  0.77342700  1
  O  O53  1  0.26284500  0.82084300  0.48491200  1
  O  O54  1  0.98263400  0.44670700  0.79723200  1
  O  O55  1  0.82084300  0.26284500  0.43140000  1
