# generated using pymatgen
data_AgSb(SeF3)2
_symmetry_space_group_name_H-M   'P 1'
_cell_length_a   12.54601809
_cell_length_b   12.54601809
_cell_length_c   10.95627026
_cell_angle_alpha   64.30321282
_cell_angle_beta   64.30321282
_cell_angle_gamma   52.57067805
_symmetry_Int_Tables_number   1
_chemical_formula_structural   AgSb(SeF3)2
_chemical_formula_sum   'Ag6 Sb6 Se12 F36'
_cell_volume   1198.66920759
_cell_formula_units_Z   6
loop_
 _symmetry_equiv_pos_site_id
 _symmetry_equiv_pos_as_xyz
  1  'x, y, z'
loop_
 _atom_site_type_symbol
 _atom_site_label
 _atom_site_symmetry_multiplicity
 _atom_site_fract_x
 _atom_site_fract_y
 _atom_site_fract_z
 _atom_site_occupancy
  Ag  Ag0  1  0.51782600  0.48217400  0.25000000  1
  Ag  Ag1  1  0.48217400  0.51782600  0.75000000  1
  Ag  Ag2  1  0.81059100  0.85379000  0.65481100  1
  Ag  Ag3  1  0.14621000  0.18940900  0.84518900  1
  Ag  Ag4  1  0.18940900  0.14621000  0.34518900  1
  Ag  Ag5  1  0.85379000  0.81059100  0.15481100  1
  Sb  Sb6  1  0.00000000  0.50000000  0.00000000  1
  Sb  Sb7  1  0.50000000  0.00000000  0.50000000  1
  Sb  Sb8  1  0.01904500  0.98095500  0.75000000  1
  Sb  Sb9  1  0.98095500  0.01904500  0.25000000  1
  Sb  Sb10  1  0.00000000  0.50000000  0.50000000  1
  Sb  Sb11  1  0.50000000  0.00000000  0.00000000  1
  Se  Se12  1  0.71317200  0.37752600  0.89603700  1
  Se  Se13  1  0.62247400  0.28682800  0.60396300  1
  Se  Se14  1  0.28682800  0.62247400  0.10396300  1
  Se  Se15  1  0.37752600  0.71317200  0.39603700  1
  Se  Se16  1  0.62719900  0.57900500  0.96225800  1
  Se  Se17  1  0.42099500  0.37280100  0.53774200  1
  Se  Se18  1  0.37280100  0.42099500  0.03774200  1
  Se  Se19  1  0.57900500  0.62719900  0.46225800  1
  Se  Se20  1  0.40834700  0.72009700  0.90614100  1
  Se  Se21  1  0.27990300  0.59165300  0.59385900  1
  Se  Se22  1  0.59165300  0.27990300  0.09385900  1
  Se  Se23  1  0.72009700  0.40834700  0.40614100  1
  F  F24  1  0.91181300  0.63753000  0.84904600  1
  F  F25  1  0.36247000  0.08818700  0.65095400  1
  F  F26  1  0.08818700  0.36247000  0.15095400  1
  F  F27  1  0.63753000  0.91181300  0.34904600  1
  F  F28  1  0.04683000  0.61965600  0.00291300  1
  F  F29  1  0.38034400  0.95317000  0.49708700  1
  F  F30  1  0.95317000  0.38034400  0.99708700  1
  F  F31  1  0.61965600  0.04683000  0.50291300  1
  F  F32  1  0.82788400  0.58331200  0.13097600  1
  F  F33  1  0.41668800  0.17211600  0.36902400  1
  F  F34  1  0.17211600  0.41668800  0.86902400  1
  F  F35  1  0.58331200  0.82788400  0.63097600  1
  F  F36  1  0.93552400  0.89803300  0.73997600  1
  F  F37  1  0.10196700  0.06447600  0.76002400  1
  F  F38  1  0.06447600  0.10196700  0.26002400  1
  F  F39  1  0.89803300  0.93552400  0.23997600  1
  F  F40  1  0.84611700  0.15388300  0.75000000  1
  F  F41  1  0.15388300  0.84611700  0.25000000  1
  F  F42  1  0.19192200  0.80807800  0.75000000  1
  F  F43  1  0.80807800  0.19192200  0.25000000  1
  F  F44  1  0.96634300  0.92856500  0.95057300  1
  F  F45  1  0.07143500  0.03365700  0.54942700  1
  F  F46  1  0.03365700  0.07143500  0.04942700  1
  F  F47  1  0.92856500  0.96634300  0.45057300  1
  F  F48  1  0.92911100  0.67833200  0.52257500  1
  F  F49  1  0.32166800  0.07088900  0.97742500  1
  F  F50  1  0.07088900  0.32166800  0.47742500  1
  F  F51  1  0.67833200  0.92911100  0.02257500  1
  F  F52  1  0.82365700  0.51594400  0.59757000  1
  F  F53  1  0.48405600  0.17634300  0.90243000  1
  F  F54  1  0.17634300  0.48405600  0.40243000  1
  F  F55  1  0.51594400  0.82365700  0.09757000  1
  F  F56  1  0.94385100  0.58999200  0.32619900  1
  F  F57  1  0.41000800  0.05614900  0.17380100  1
  F  F58  1  0.05614900  0.41000800  0.67380100  1
  F  F59  1  0.58999200  0.94385100  0.82619900  1
