# generated using pymatgen
data_Ho5SbPt2
_symmetry_space_group_name_H-M   'P 1'
_cell_length_a   8.75605907
_cell_length_b   8.75605907
_cell_length_c   8.75605907
_cell_angle_alpha   127.69667315
_cell_angle_beta   127.69667315
_cell_angle_gamma   77.11692326
_symmetry_Int_Tables_number   1
_chemical_formula_structural   Ho5SbPt2
_chemical_formula_sum   'Ho10 Sb2 Pt4'
_cell_volume   407.90564552
_cell_formula_units_Z   2
loop_
 _symmetry_equiv_pos_site_id
 _symmetry_equiv_pos_as_xyz
  1  'x, y, z'
loop_
 _atom_site_type_symbol
 _atom_site_label
 _atom_site_symmetry_multiplicity
 _atom_site_fract_x
 _atom_site_fract_y
 _atom_site_fract_z
 _atom_site_occupancy
  Ho  Ho0  1  0.00000000  0.00000000  0.00000000  1
  Ho  Ho1  1  0.50000000  0.50000000  0.00000000  1
  Ho  Ho2  1  0.79639200  0.29639200  0.81638100  1
  Ho  Ho3  1  0.20360800  0.70360800  0.18361900  1
  Ho  Ho4  1  0.48001000  0.98001000  0.18361900  1
  Ho  Ho5  1  0.29639200  0.48001000  0.50000000  1
  Ho  Ho6  1  0.01999000  0.20360800  0.50000000  1
  Ho  Ho7  1  0.51999000  0.01999000  0.81638100  1
  Ho  Ho8  1  0.70360800  0.51999000  0.50000000  1
  Ho  Ho9  1  0.98001000  0.79639200  0.50000000  1
  Sb  Sb10  1  0.25000000  0.25000000  0.00000000  1
  Sb  Sb11  1  0.75000000  0.75000000  0.00000000  1
  Pt  Pt12  1  0.13723900  0.63723900  0.77447900  1
  Pt  Pt13  1  0.86276100  0.36276100  0.22552100  1
  Pt  Pt14  1  0.63723900  0.86276100  0.50000000  1
  Pt  Pt15  1  0.36276100  0.13723900  0.50000000  1
