# generated using pymatgen
data_YUS2
_symmetry_space_group_name_H-M   'P 1'
_cell_length_a   6.89855330
_cell_length_b   6.89855330
_cell_length_c   6.89855366
_cell_angle_alpha   32.34877097
_cell_angle_beta   32.34877097
_cell_angle_gamma   32.34876702
_symmetry_Int_Tables_number   1
_chemical_formula_structural   YUS2
_chemical_formula_sum   'Y1 U1 S2'
_cell_volume   83.55876573
_cell_formula_units_Z   1
loop_
 _symmetry_equiv_pos_site_id
 _symmetry_equiv_pos_as_xyz
  1  'x, y, z'
loop_
 _atom_site_type_symbol
 _atom_site_label
 _atom_site_symmetry_multiplicity
 _atom_site_fract_x
 _atom_site_fract_y
 _atom_site_fract_z
 _atom_site_occupancy
  Y  Y0  1  0.00000000  0.00000000  0.00000000  1
  U  U1  1  0.50000000  0.50000000  0.50000000  1
  S  S2  1  0.25028800  0.25028800  0.25028800  1
  S  S3  1  0.74971200  0.74971200  0.74971200  1
