# generated using pymatgen
data_FeB4
_symmetry_space_group_name_H-M   'P 1'
_cell_length_a   3.00450700
_cell_length_b   4.52051700
_cell_length_c   5.28987300
_cell_angle_alpha   90.00000000
_cell_angle_beta   90.00000000
_cell_angle_gamma   90.00000000
_symmetry_Int_Tables_number   1
_chemical_formula_structural   FeB4
_chemical_formula_sum   'Fe2 B8'
_cell_volume   71.84665819
_cell_formula_units_Z   2
loop_
 _symmetry_equiv_pos_site_id
 _symmetry_equiv_pos_as_xyz
  1  'x, y, z'
loop_
 _atom_site_type_symbol
 _atom_site_label
 _atom_site_symmetry_multiplicity
 _atom_site_fract_x
 _atom_site_fract_y
 _atom_site_fract_z
 _atom_site_occupancy
  Fe  Fe0  1  0.50000000  0.50000000  0.50000000  1
  Fe  Fe1  1  0.00000000  0.00000000  0.00000000  1
  B  B2  1  0.50000000  0.74915700  0.18764500  1
  B  B3  1  0.50000000  0.25084300  0.81235500  1
  B  B4  1  0.00000000  0.24915700  0.31235500  1
  B  B5  1  0.00000000  0.75084300  0.68764500  1
  B  B6  1  0.00000000  0.83983300  0.37381000  1
  B  B7  1  0.00000000  0.16016700  0.62619000  1
  B  B8  1  0.50000000  0.33983300  0.12619000  1
  B  B9  1  0.50000000  0.66016700  0.87381000  1
