# generated using pymatgen
data_BaMo2(P2O7)2
_symmetry_space_group_name_H-M   'P 1'
_cell_length_a   7.75348785
_cell_length_b   7.75348786
_cell_length_c   10.08673641
_cell_angle_alpha   80.12039612
_cell_angle_beta   80.12039608
_cell_angle_gamma   89.32204251
_symmetry_Int_Tables_number   1
_chemical_formula_structural   BaMo2(P2O7)2
_chemical_formula_sum   'Ba2 Mo4 P8 O28'
_cell_volume   588.43187402
_cell_formula_units_Z   2
loop_
 _symmetry_equiv_pos_site_id
 _symmetry_equiv_pos_as_xyz
  1  'x, y, z'
loop_
 _atom_site_type_symbol
 _atom_site_label
 _atom_site_symmetry_multiplicity
 _atom_site_fract_x
 _atom_site_fract_y
 _atom_site_fract_z
 _atom_site_occupancy
  O  O0  1  0.94633495  0.77640900  0.16357786  1
  O  O1  1  0.22359111  0.05366614  0.33642150  1
  O  O2  1  0.05366587  0.22359139  0.83642162  1
  O  O3  1  0.77640840  0.94633424  0.66357815  1
  O  O4  1  0.62571136  0.74123517  0.28985164  1
  O  O5  1  0.25876445  0.37428926  0.21014883  1
  O  O6  1  0.37428944  0.25876390  0.71014801  1
  O  O7  1  0.74123637  0.62571112  0.78985164  1
  O  O8  1  0.85161110  0.83476558  0.40953114  1
  O  O9  1  0.16523498  0.14838848  0.09046835  1
  O  O10  1  0.14838840  0.16523479  0.59046850  1
  O  O11  1  0.83476453  0.85161190  0.90953130  1
  O  O12  1  0.86415178  0.52552233  0.34391491  1
  O  O13  1  0.47447772  0.13584809  0.15608560  1
  O  O14  1  0.38798175  0.73978490  0.09128687  1
  O  O15  1  0.26021512  0.61201884  0.40871256  1
  O  O16  1  0.61201908  0.26021548  0.90871260  1
  O  O17  1  0.73978438  0.38798154  0.59128709  1
  O  O18  1  0.36225649  0.56568248  0.90098548  1
  O  O19  1  0.43431834  0.63774335  0.59901419  1
  O  O20  1  0.63774302  0.43431790  0.09901416  1
  O  O21  1  0.13584772  0.47447805  0.65608573  1
  O  O22  1  0.20050999  0.84192762  0.91148566  1
  O  O23  1  0.15807175  0.79948972  0.58851421  1
  O  O24  1  0.79948950  0.15807144  0.08851416  1
  O  O25  1  0.84192776  0.20051065  0.41148544  1
  O  O26  1  0.52552179  0.86415228  0.84391404  1
  O  O27  1  0.56568248  0.36225703  0.40098529  1
  P  P28  1  0.82061356  0.73186433  0.30009779  1
  P  P29  1  0.26813669  0.17938696  0.19990251  1
  P  P30  1  0.17938726  0.26813605  0.69990268  1
  P  P31  1  0.73186413  0.82061342  0.80009796  1
  P  P32  1  0.74775550  0.36697699  0.44382290  1
  P  P33  1  0.63302313  0.25224486  0.05617654  1
  P  P34  1  0.25224532  0.63302339  0.55617657  1
  P  P35  1  0.36697637  0.74775552  0.94382310  1
  Mo  Mo36  1  0.99999967  0.99999941  0.50000024  1
  Mo  Mo37  1  0.00000000  0.00000000  0.00000000  1
  Mo  Mo38  1  0.45479875  0.54520162  0.25000020  1
  Mo  Mo39  1  0.54520207  0.45479876  0.75000027  1
  Ba  Ba40  1  0.00000019  0.49999938  0.00000040  1
  Ba  Ba41  1  0.50000020  0.99999950  0.50000051  1
