# generated using pymatgen
data_V4GeS8
_symmetry_space_group_name_H-M   'P 1'
_cell_length_a   6.84591300
_cell_length_b   6.84591300
_cell_length_c   6.84591300
_cell_angle_alpha   120.32642637
_cell_angle_beta   119.03501322
_cell_angle_gamma   90.55750831
_symmetry_Int_Tables_number   1
_chemical_formula_structural   V4GeS8
_chemical_formula_sum   'V4 Ge1 S8'
_cell_volume   227.91849108
_cell_formula_units_Z   1
loop_
 _symmetry_equiv_pos_site_id
 _symmetry_equiv_pos_as_xyz
  1  'x, y, z'
loop_
 _atom_site_type_symbol
 _atom_site_label
 _atom_site_symmetry_multiplicity
 _atom_site_fract_x
 _atom_site_fract_y
 _atom_site_fract_z
 _atom_site_occupancy
  V  V0  1  0.39461000  0.60353700  0.79107300  1
  V  V1  1  0.81246400  0.60353700  0.20892700  1
  V  V2  1  0.39502900  0.20060400  0.80557500  1
  V  V3  1  0.39502900  0.58945400  0.19442500  1
  Ge  Ge4  1  0.99434700  0.99434700  0.00000000  1
  S  S5  1  0.62869500  0.37506400  0.74636900  1
  S  S6  1  0.62869500  0.88232500  0.25363100  1
  S  S7  1  0.13438300  0.86283500  0.72845200  1
  S  S8  1  0.13438300  0.40593100  0.27154800  1
  S  S9  1  0.10794800  0.36903700  0.73891100  1
  S  S10  1  0.63012600  0.36903700  0.26108900  1
  S  S11  1  0.58802700  0.86309600  0.72493100  1
  S  S12  1  0.13816400  0.86309600  0.27506900  1
