# generated using pymatgen
data_Na2Ca(Ge3O7)2
_symmetry_space_group_name_H-M   'P 1'
_cell_length_a   8.24461883
_cell_length_b   8.24461883
_cell_length_c   4.93114623
_cell_angle_alpha   89.85811807
_cell_angle_beta   89.85811807
_cell_angle_gamma   60.33543117
_symmetry_Int_Tables_number   1
_chemical_formula_structural   Na2Ca(Ge3O7)2
_chemical_formula_sum   'Na2 Ca1 Ge6 O14'
_cell_volume   291.25669784
_cell_formula_units_Z   1
loop_
 _symmetry_equiv_pos_site_id
 _symmetry_equiv_pos_as_xyz
  1  'x, y, z'
loop_
 _atom_site_type_symbol
 _atom_site_label
 _atom_site_symmetry_multiplicity
 _atom_site_fract_x
 _atom_site_fract_y
 _atom_site_fract_z
 _atom_site_occupancy
  Na  Na0  1  0.00059800  0.42261300  0.99995300  1
  Na  Na1  1  0.57738700  0.99940200  0.00004700  1
  Ca  Ca2  1  0.42127900  0.57872100  0.00000000  1
  Ge  Ge3  1  0.00111700  0.75256700  0.50197500  1
  Ge  Ge4  1  0.24743300  0.99888300  0.49802500  1
  Ge  Ge5  1  0.75565100  0.24434900  0.50000000  1
  Ge  Ge6  1  0.99701600  0.00298400  0.00000000  1
  Ge  Ge7  1  0.33436800  0.33379300  0.51613600  1
  Ge  Ge8  1  0.66620700  0.66563200  0.48386400  1
  O  O9  1  0.91335300  0.21489800  0.76424200  1
  O  O10  1  0.87374900  0.91238200  0.76367200  1
  O  O11  1  0.21651300  0.87220700  0.76769700  1
  O  O12  1  0.78510200  0.08664700  0.23575800  1
  O  O13  1  0.12779300  0.78348700  0.23230300  1
  O  O14  1  0.08761800  0.12625100  0.23632800  1
  O  O15  1  0.34007100  0.34732300  0.17200900  1
  O  O16  1  0.65267700  0.65992900  0.82799100  1
  O  O17  1  0.68860600  0.45971000  0.31915300  1
  O  O18  1  0.84768200  0.69194000  0.32762900  1
  O  O19  1  0.45666300  0.83923000  0.31705500  1
  O  O20  1  0.54029000  0.31139400  0.68084700  1
  O  O21  1  0.16077000  0.54333700  0.68294500  1
  O  O22  1  0.30806000  0.15231800  0.67237100  1
