# generated using pymatgen
data_MnNb4(CS2)2
_symmetry_space_group_name_H-M   'P 1'
_cell_length_a   3.34451900
_cell_length_b   5.77382100
_cell_length_c   8.96825745
_cell_angle_alpha   78.36066709
_cell_angle_beta   90.00000000
_cell_angle_gamma   90.00000000
_symmetry_Int_Tables_number   1
_chemical_formula_structural   MnNb4(CS2)2
_chemical_formula_sum   'Mn1 Nb4 C2 S4'
_cell_volume   169.62175329
_cell_formula_units_Z   1
loop_
 _symmetry_equiv_pos_site_id
 _symmetry_equiv_pos_as_xyz
  1  'x, y, z'
loop_
 _atom_site_type_symbol
 _atom_site_label
 _atom_site_symmetry_multiplicity
 _atom_site_fract_x
 _atom_site_fract_y
 _atom_site_fract_z
 _atom_site_occupancy
  Mn  Mn0  1  0.00000000  0.00000000  0.00000000  1
  Nb  Nb1  1  0.50000000  0.63263600  0.62940200  1
  Nb  Nb2  1  0.00000000  0.11845500  0.63100900  1
  Nb  Nb3  1  0.50000000  0.36736400  0.37059800  1
  Nb  Nb4  1  0.00000000  0.88154500  0.36899100  1
  C  C5  1  0.00000000  0.50000000  0.50000000  1
  C  C6  1  0.50000000  0.00000000  0.50000000  1
  S  S7  1  0.50000000  0.76568600  0.17603900  1
  S  S8  1  0.00000000  0.27293200  0.17748700  1
  S  S9  1  0.50000000  0.23431400  0.82396100  1
  S  S10  1  0.00000000  0.72706800  0.82251300  1
