# generated using pymatgen
data_MgFe(GeO3)2
_symmetry_space_group_name_H-M   'P 1'
_cell_length_a   5.24964613
_cell_length_b   9.80334802
_cell_length_c   9.17244752
_cell_angle_alpha   90.01511075
_cell_angle_beta   90.00412002
_cell_angle_gamma   79.65201238
_symmetry_Int_Tables_number   1
_chemical_formula_structural   MgFe(GeO3)2
_chemical_formula_sum   'Mg4 Fe4 Ge8 O24'
_cell_volume   464.37386137
_cell_formula_units_Z   4
loop_
 _symmetry_equiv_pos_site_id
 _symmetry_equiv_pos_as_xyz
  1  'x, y, z'
loop_
 _atom_site_type_symbol
 _atom_site_label
 _atom_site_symmetry_multiplicity
 _atom_site_fract_x
 _atom_site_fract_y
 _atom_site_fract_z
 _atom_site_occupancy
  Mg  Mg0  1  0.74992900  0.50000900  0.22872200  1
  Mg  Mg1  1  0.75002500  0.99999900  0.72864600  1
  Mg  Mg2  1  0.25009100  0.49996200  0.77127600  1
  Mg  Mg3  1  0.25002000  0.00000800  0.27134600  1
  Fe  Fe4  1  0.74994500  0.00001100  0.09269000  1
  Fe  Fe5  1  0.24997100  0.00003200  0.90731100  1
  Fe  Fe6  1  0.75009600  0.49999300  0.59270000  1
  Fe  Fe7  1  0.24985900  0.50003000  0.40731700  1
  Ge  Ge8  1  0.78544300  0.30074000  0.90583100  1
  Ge  Ge9  1  0.78547900  0.80069800  0.40583400  1
  Ge  Ge10  1  0.71452800  0.69924800  0.90582200  1
  Ge  Ge11  1  0.71452200  0.19931500  0.40588800  1
  Ge  Ge12  1  0.21456200  0.69926300  0.09416100  1
  Ge  Ge13  1  0.21452600  0.19929300  0.59417800  1
  Ge  Ge14  1  0.28547300  0.30076000  0.09417000  1
  Ge  Ge15  1  0.28548100  0.80068400  0.59411200  1
  O  O16  1  0.59499400  0.35964900  0.06908100  1
  O  O17  1  0.59499200  0.85958100  0.56906000  1
  O  O18  1  0.90503700  0.64034700  0.06903600  1
  O  O19  1  0.90503400  0.14039100  0.56907800  1
  O  O20  1  0.40501300  0.64035100  0.93091400  1
  O  O21  1  0.40501700  0.14041600  0.43095400  1
  O  O22  1  0.09497200  0.35964900  0.93095300  1
  O  O23  1  0.09497000  0.85960600  0.43091600  1
  O  O24  1  0.11446500  0.38483400  0.23926100  1
  O  O25  1  0.11432800  0.88477400  0.73913100  1
  O  O26  1  0.38562400  0.61519100  0.23918000  1
  O  O27  1  0.38562900  0.11517400  0.73917700  1
  O  O28  1  0.88554300  0.61515900  0.76073400  1
  O  O29  1  0.88564500  0.11521600  0.26085000  1
  O  O30  1  0.61436700  0.38479800  0.76081800  1
  O  O31  1  0.61434800  0.88480200  0.26084400  1
  O  O32  1  0.85830600  0.11810400  0.90522800  1
  O  O33  1  0.85842000  0.61807000  0.40526300  1
  O  O34  1  0.64171500  0.88188800  0.90525300  1
  O  O35  1  0.64166000  0.38195700  0.40537600  1
  O  O36  1  0.14172400  0.88190900  0.09470800  1
  O  O37  1  0.14159100  0.38192000  0.59474200  1
  O  O38  1  0.35830700  0.11812600  0.09479200  1
  O  O39  1  0.35834900  0.61804000  0.59464700  1
