# generated using pymatgen
data_Lu5SbPt2
_symmetry_space_group_name_H-M   'P 1'
_cell_length_a   8.63562469
_cell_length_b   8.63562469
_cell_length_c   8.63562469
_cell_angle_alpha   128.00116190
_cell_angle_beta   128.00116190
_cell_angle_gamma   76.62314588
_symmetry_Int_Tables_number   1
_chemical_formula_structural   Lu5SbPt2
_chemical_formula_sum   'Lu10 Sb2 Pt4'
_cell_volume   388.40405989
_cell_formula_units_Z   2
loop_
 _symmetry_equiv_pos_site_id
 _symmetry_equiv_pos_as_xyz
  1  'x, y, z'
loop_
 _atom_site_type_symbol
 _atom_site_label
 _atom_site_symmetry_multiplicity
 _atom_site_fract_x
 _atom_site_fract_y
 _atom_site_fract_z
 _atom_site_occupancy
  Lu  Lu0  1  0.00000000  0.00000000  0.00000000  1
  Lu  Lu1  1  0.50000000  0.50000000  0.00000000  1
  Lu  Lu2  1  0.79855700  0.29855700  0.82043100  1
  Lu  Lu3  1  0.20144300  0.70144300  0.17956900  1
  Lu  Lu4  1  0.47812600  0.97812600  0.17956900  1
  Lu  Lu5  1  0.29855700  0.47812600  0.50000000  1
  Lu  Lu6  1  0.02187400  0.20144300  0.50000000  1
  Lu  Lu7  1  0.52187400  0.02187400  0.82043100  1
  Lu  Lu8  1  0.70144300  0.52187400  0.50000000  1
  Lu  Lu9  1  0.97812600  0.79855700  0.50000000  1
  Sb  Sb10  1  0.25000000  0.25000000  0.00000000  1
  Sb  Sb11  1  0.75000000  0.75000000  0.00000000  1
  Pt  Pt12  1  0.13692700  0.63692700  0.77385300  1
  Pt  Pt13  1  0.86307300  0.36307300  0.22614700  1
  Pt  Pt14  1  0.63692700  0.86307300  0.50000000  1
  Pt  Pt15  1  0.36307300  0.13692700  0.50000000  1
