# generated using pymatgen
data_Mn5VO8
_symmetry_space_group_name_H-M   'P 1'
_cell_length_a   10.44189170
_cell_length_b   10.44189170
_cell_length_c   5.51039833
_cell_angle_alpha   80.29887240
_cell_angle_beta   80.29887240
_cell_angle_gamma   35.21824127
_symmetry_Int_Tables_number   1
_chemical_formula_structural   Mn5VO8
_chemical_formula_sum   'Mn10 V2 O16'
_cell_volume   341.02812749
_cell_formula_units_Z   2
loop_
 _symmetry_equiv_pos_site_id
 _symmetry_equiv_pos_as_xyz
  1  'x, y, z'
loop_
 _atom_site_type_symbol
 _atom_site_label
 _atom_site_symmetry_multiplicity
 _atom_site_fract_x
 _atom_site_fract_y
 _atom_site_fract_z
 _atom_site_occupancy
  Mn  Mn0  1  0.63224900  0.63224900  0.24033700  1
  Mn  Mn1  1  0.36775100  0.36775100  0.75966300  1
  Mn  Mn2  1  0.75169000  0.24831000  0.50000000  1
  Mn  Mn3  1  0.24831000  0.75169000  0.50000000  1
  Mn  Mn4  1  0.88874400  0.37636000  0.74442400  1
  Mn  Mn5  1  0.37636000  0.88874400  0.74442400  1
  Mn  Mn6  1  0.11125600  0.62364000  0.25557600  1
  Mn  Mn7  1  0.62364000  0.11125600  0.25557600  1
  Mn  Mn8  1  0.00000000  0.00000000  0.00000000  1
  Mn  Mn9  1  0.50000000  0.50000000  0.00000000  1
  V  V10  1  0.21385500  0.21385500  0.19504700  1
  V  V11  1  0.78614500  0.78614500  0.80495300  1
  O  O12  1  0.40804600  0.95904800  0.36238400  1
  O  O13  1  0.95904800  0.40804600  0.36238400  1
  O  O14  1  0.59195400  0.04095200  0.63761600  1
  O  O15  1  0.04095200  0.59195400  0.63761600  1
  O  O16  1  0.33429300  0.78028600  0.10608200  1
  O  O17  1  0.78028600  0.33429300  0.10608200  1
  O  O18  1  0.66570700  0.21971400  0.89391800  1
  O  O19  1  0.21971400  0.66570700  0.89391800  1
  O  O20  1  0.43013900  0.43013900  0.39272000  1
  O  O21  1  0.56986100  0.56986100  0.60728000  1
  O  O22  1  0.94408000  0.94408000  0.32486900  1
  O  O23  1  0.05592000  0.05592000  0.67513100  1
  O  O24  1  0.18553800  0.18553800  0.91193500  1
  O  O25  1  0.81446200  0.81446200  0.08806500  1
  O  O26  1  0.69357900  0.69357900  0.86422000  1
  O  O27  1  0.30642100  0.30642100  0.13578000  1
