# generated using pymatgen
data_RuF6
_symmetry_space_group_name_H-M   'P 1'
_cell_length_a   5.47227596
_cell_length_b   5.47227596
_cell_length_c   5.47227654
_cell_angle_alpha   109.47121209
_cell_angle_beta   109.47122491
_cell_angle_gamma   109.47122063
_symmetry_Int_Tables_number   1
_chemical_formula_structural   RuF6
_chemical_formula_sum   'Ru1 F6'
_cell_volume   126.14851694
_cell_formula_units_Z   1
loop_
 _symmetry_equiv_pos_site_id
 _symmetry_equiv_pos_as_xyz
  1  'x, y, z'
loop_
 _atom_site_type_symbol
 _atom_site_label
 _atom_site_symmetry_multiplicity
 _atom_site_fract_x
 _atom_site_fract_y
 _atom_site_fract_z
 _atom_site_occupancy
  Ru  Ru0  1  0.00000000  0.00000000  0.00000000  1
  F  F1  1  0.00000000  0.29406200  0.29406200  1
  F  F2  1  0.00000000  0.70593800  0.70593800  1
  F  F3  1  0.29406200  0.00000000  0.29406200  1
  F  F4  1  0.70593800  0.00000000  0.70593800  1
  F  F5  1  0.29406200  0.29406200  0.00000000  1
  F  F6  1  0.70593800  0.70593800  0.00000000  1
