# generated using pymatgen
data_LuAgPb
_symmetry_space_group_name_H-M   'P 1'
_cell_length_a   7.46249590
_cell_length_b   7.46249590
_cell_length_c   4.53460900
_cell_angle_alpha   90.00000000
_cell_angle_beta   90.00000000
_cell_angle_gamma   119.99999914
_symmetry_Int_Tables_number   1
_chemical_formula_structural   LuAgPb
_chemical_formula_sum   'Lu3 Ag3 Pb3'
_cell_volume   218.69491873
_cell_formula_units_Z   3
loop_
 _symmetry_equiv_pos_site_id
 _symmetry_equiv_pos_as_xyz
  1  'x, y, z'
loop_
 _atom_site_type_symbol
 _atom_site_label
 _atom_site_symmetry_multiplicity
 _atom_site_fract_x
 _atom_site_fract_y
 _atom_site_fract_z
 _atom_site_occupancy
  Lu  Lu0  1  0.56782800  0.00000000  0.50000000  1
  Lu  Lu1  1  0.43217200  0.43217200  0.50000000  1
  Lu  Lu2  1  0.00000000  0.56782800  0.50000000  1
  Ag  Ag3  1  0.75392100  0.75392100  0.00000000  1
  Ag  Ag4  1  0.00000000  0.24607900  0.00000000  1
  Ag  Ag5  1  0.24607900  0.00000000  0.00000000  1
  Pb  Pb6  1  0.00000000  0.00000000  0.50000000  1
  Pb  Pb7  1  0.33333300  0.66666700  0.00000000  1
  Pb  Pb8  1  0.66666700  0.33333300  0.00000000  1
