# generated using pymatgen
data_SrAl2(SiO4)2
_symmetry_space_group_name_H-M   'P 1'
_cell_length_a   9.31961762
_cell_length_b   9.31961762
_cell_length_c   8.44129456
_cell_angle_alpha   82.98285184
_cell_angle_beta   82.98285184
_cell_angle_gamma   89.59666603
_symmetry_Int_Tables_number   1
_chemical_formula_structural   SrAl2(SiO4)2
_chemical_formula_sum   'Sr4 Al8 Si8 O32'
_cell_volume   722.20549822
_cell_formula_units_Z   4
loop_
 _symmetry_equiv_pos_site_id
 _symmetry_equiv_pos_as_xyz
  1  'x, y, z'
loop_
 _atom_site_type_symbol
 _atom_site_label
 _atom_site_symmetry_multiplicity
 _atom_site_fract_x
 _atom_site_fract_y
 _atom_site_fract_z
 _atom_site_occupancy
  Sr  Sr0  1  0.56695500  0.06429500  0.70046700  1
  Sr  Sr1  1  0.93570500  0.43304500  0.79953300  1
  Sr  Sr2  1  0.43304500  0.93570500  0.29953300  1
  Sr  Sr3  1  0.06429500  0.56695500  0.20046700  1
  Al  Al4  1  0.79391000  0.93975900  0.38426000  1
  Al  Al5  1  0.06024100  0.20609000  0.11574000  1
  Al  Al6  1  0.20609000  0.06024100  0.61574000  1
  Al  Al7  1  0.93975900  0.79391000  0.88426000  1
  Al  Al8  1  0.70847400  0.45054300  0.47919900  1
  Al  Al9  1  0.54945700  0.29152600  0.02080100  1
  Al  Al10  1  0.29152600  0.54945700  0.52080100  1
  Al  Al11  1  0.45054300  0.70847400  0.97919900  1
  Si  Si12  1  0.56641300  0.71805500  0.60295100  1
  Si  Si13  1  0.28194500  0.43358700  0.89704900  1
  Si  Si14  1  0.43358700  0.28194500  0.39704900  1
  Si  Si15  1  0.71805500  0.56641300  0.10295100  1
  Si  Si16  1  0.94091600  0.21499200  0.48939100  1
  Si  Si17  1  0.78500800  0.05908400  0.01060900  1
  Si  Si18  1  0.05908400  0.78500800  0.51060900  1
  Si  Si19  1  0.21499200  0.94091600  0.98939100  1
  O  O20  1  0.62876400  0.87106700  0.49618000  1
  O  O21  1  0.12893300  0.37123600  0.00382000  1
  O  O22  1  0.37123600  0.12893300  0.50382000  1
  O  O23  1  0.87106700  0.62876400  0.99618000  1
  O  O24  1  0.85482700  0.35550500  0.55715200  1
  O  O25  1  0.64449500  0.14517300  0.94284800  1
  O  O26  1  0.14517300  0.64449500  0.44284800  1
  O  O27  1  0.35550500  0.85482700  0.05715200  1
  O  O28  1  0.98476000  0.73508100  0.69478400  1
  O  O29  1  0.26491900  0.01524000  0.80521600  1
  O  O30  1  0.01524000  0.26491900  0.30521600  1
  O  O31  1  0.73508100  0.98476000  0.19478400  1
  O  O32  1  0.51903600  0.76994900  0.77961700  1
  O  O33  1  0.23005100  0.48096400  0.72038300  1
  O  O34  1  0.48096400  0.23005100  0.22038300  1
  O  O35  1  0.76994900  0.51903600  0.27961700  1
  O  O36  1  0.94047600  0.82259800  0.38455500  1
  O  O37  1  0.17740200  0.05952400  0.11544500  1
  O  O38  1  0.05952400  0.17740200  0.61544500  1
  O  O39  1  0.82259800  0.94047600  0.88455500  1
  O  O40  1  0.67993300  0.58482500  0.60869000  1
  O  O41  1  0.41517500  0.32006700  0.89131000  1
  O  O42  1  0.32006700  0.41517500  0.39131000  1
  O  O43  1  0.58482500  0.67993300  0.10869000  1
  O  O44  1  0.82230000  0.08560900  0.49313200  1
  O  O45  1  0.91439100  0.17770000  0.00686800  1
  O  O46  1  0.17770000  0.91439100  0.50686800  1
  O  O47  1  0.08560900  0.82230000  0.99313200  1
  O  O48  1  0.56916000  0.32253100  0.49112800  1
  O  O49  1  0.67746900  0.43084000  0.00887200  1
  O  O50  1  0.43084000  0.67746900  0.50887200  1
  O  O51  1  0.32253100  0.56916000  0.99112800  1
