# generated using pymatgen
data_VH12SO10
_symmetry_space_group_name_H-M   'P 1'
_cell_length_a   6.30253823
_cell_length_b   6.30253823
_cell_length_c   24.81685483
_cell_angle_alpha   81.88620501
_cell_angle_beta   81.88620501
_cell_angle_gamma   70.47120117
_symmetry_Int_Tables_number   1
_chemical_formula_structural   VH12SO10
_chemical_formula_sum   'V4 H48 S4 O40'
_cell_volume   915.09093772
_cell_formula_units_Z   4
loop_
 _symmetry_equiv_pos_site_id
 _symmetry_equiv_pos_as_xyz
  1  'x, y, z'
loop_
 _atom_site_type_symbol
 _atom_site_label
 _atom_site_symmetry_multiplicity
 _atom_site_fract_x
 _atom_site_fract_y
 _atom_site_fract_z
 _atom_site_occupancy
  V  V0  1  0.05421200  0.94578800  0.75000000  1
  V  V1  1  0.94578800  0.05421200  0.25000000  1
  V  V2  1  0.00000000  0.00000000  0.00000000  1
  V  V3  1  0.00000000  0.00000000  0.50000000  1
  H  H4  1  0.32749500  0.00346000  0.65509600  1
  H  H5  1  0.67250500  0.99654000  0.34490400  1
  H  H6  1  0.99654000  0.67250500  0.84490400  1
  H  H7  1  0.00346000  0.32749500  0.15509600  1
  H  H8  1  0.44395000  0.70379000  0.80175400  1
  H  H9  1  0.55605000  0.29621000  0.19824600  1
  H  H10  1  0.29621000  0.55605000  0.69824600  1
  H  H11  1  0.70379000  0.44395000  0.30175400  1
  H  H12  1  0.71017700  0.35495200  0.94149500  1
  H  H13  1  0.28982300  0.64504800  0.05850500  1
  H  H14  1  0.64504800  0.28982300  0.55850500  1
  H  H15  1  0.35495200  0.71017700  0.44149500  1
  H  H16  1  0.31890200  0.93178300  0.90735500  1
  H  H17  1  0.68109800  0.06821700  0.09264500  1
  H  H18  1  0.06821700  0.68109800  0.59264500  1
  H  H19  1  0.93178300  0.31890200  0.40735500  1
  H  H20  1  0.69247400  0.75217400  0.00199600  1
  H  H21  1  0.30752600  0.24782600  0.99800400  1
  H  H22  1  0.24782600  0.30752600  0.49800400  1
  H  H23  1  0.75217400  0.69247400  0.50199600  1
  H  H24  1  0.78000200  0.89817700  0.84581600  1
  H  H25  1  0.21999800  0.10182300  0.15418400  1
  H  H26  1  0.10182300  0.21999800  0.65418400  1
  H  H27  1  0.89817700  0.78000200  0.34581600  1
  H  H28  1  0.35469300  0.96429600  0.42144700  1
  H  H29  1  0.64530700  0.03570400  0.57855300  1
  H  H30  1  0.03570400  0.64530700  0.07855300  1
  H  H31  1  0.96429600  0.35469300  0.92144700  1
  H  H32  1  0.30475100  0.71232300  0.56907600  1
  H  H33  1  0.69524900  0.28767700  0.43092400  1
  H  H34  1  0.28767700  0.69524900  0.93092400  1
  H  H35  1  0.71232300  0.30475100  0.06907600  1
  H  H36  1  0.66171200  0.92452100  0.94725500  1
  H  H37  1  0.33828800  0.07547900  0.05274500  1
  H  H38  1  0.07547900  0.33828800  0.55274500  1
  H  H39  1  0.92452100  0.66171200  0.44725500  1
  H  H40  1  0.66503700  0.19269000  0.70019800  1
  H  H41  1  0.33496300  0.80731000  0.29980200  1
  H  H42  1  0.80731000  0.33496300  0.79980200  1
  H  H43  1  0.19269000  0.66503700  0.20019800  1
  H  H44  1  0.49386200  0.92081300  0.76791300  1
  H  H45  1  0.50613800  0.07918700  0.23208700  1
  H  H46  1  0.07918700  0.50613800  0.73208700  1
  H  H47  1  0.92081300  0.49386200  0.26791300  1
  H  H48  1  0.71909800  0.93917300  0.68930200  1
  H  H49  1  0.28090200  0.06082700  0.31069800  1
  H  H50  1  0.06082700  0.28090200  0.81069800  1
  H  H51  1  0.93917300  0.71909800  0.18930200  1
  S  S52  1  0.41941500  0.31737800  0.87652100  1
  S  S53  1  0.58058500  0.68262200  0.12347900  1
  S  S54  1  0.68262200  0.58058500  0.62347900  1
  S  S55  1  0.31737800  0.41941500  0.37652100  1
  O  O56  1  0.21120100  0.86103200  0.92857400  1
  O  O57  1  0.78879900  0.13896800  0.07142600  1
  O  O58  1  0.13896800  0.78879900  0.57142600  1
  O  O59  1  0.86103200  0.21120100  0.42857400  1
  O  O60  1  0.54151900  0.42252500  0.83052600  1
  O  O61  1  0.45848100  0.57747500  0.16947400  1
  O  O62  1  0.57747500  0.45848100  0.66947400  1
  O  O63  1  0.42252500  0.54151900  0.33052600  1
  O  O64  1  0.20124600  0.09898600  0.67785600  1
  O  O65  1  0.79875400  0.90101400  0.32214400  1
  O  O66  1  0.90101400  0.79875400  0.82214400  1
  O  O67  1  0.09898600  0.20124600  0.17785600  1
  O  O68  1  0.62519300  0.82232200  0.63406200  1
  O  O69  1  0.37480700  0.17767800  0.36593800  1
  O  O70  1  0.17767800  0.37480700  0.86593800  1
  O  O71  1  0.82232200  0.62519300  0.13406200  1
  O  O72  1  0.52961600  0.06524200  0.88211300  1
  O  O73  1  0.47038400  0.93475800  0.11788700  1
  O  O74  1  0.93475800  0.47038400  0.61788700  1
  O  O75  1  0.06524200  0.52961600  0.38211300  1
  O  O76  1  0.31896100  0.86378500  0.45296300  1
  O  O77  1  0.68103900  0.13621500  0.54703700  1
  O  O78  1  0.13621500  0.68103900  0.04703700  1
  O  O79  1  0.86378500  0.31896100  0.95296300  1
  O  O80  1  0.37298400  0.85889800  0.78467100  1
  O  O81  1  0.62701600  0.14110200  0.21532900  1
  O  O82  1  0.14110200  0.62701600  0.71532900  1
  O  O83  1  0.85889800  0.37298400  0.28467100  1
  O  O84  1  0.75882400  0.85388900  0.97695700  1
  O  O85  1  0.24117600  0.14611100  0.02304300  1
  O  O86  1  0.14611100  0.24117600  0.52304300  1
  O  O87  1  0.85388900  0.75882400  0.47695700  1
  O  O88  1  0.72193500  0.03412300  0.71762200  1
  O  O89  1  0.27806500  0.96587700  0.28237800  1
  O  O90  1  0.96587700  0.27806500  0.78237800  1
  O  O91  1  0.03412300  0.72193500  0.21762200  1
  O  O92  1  0.42733500  0.40332100  0.92931300  1
  O  O93  1  0.57266500  0.59667900  0.07068700  1
  O  O94  1  0.59667900  0.57266500  0.57068700  1
  O  O95  1  0.40332100  0.42733500  0.42931300  1
