# generated using pymatgen
data_Ba4Sr2Gd2Co4O15
_symmetry_space_group_name_H-M   'P 1'
_cell_length_a   6.87866081
_cell_length_b   11.74410127
_cell_length_c   11.70811668
_cell_angle_alpha   60.06019374
_cell_angle_beta   89.70410225
_cell_angle_gamma   89.38546597
_symmetry_Int_Tables_number   1
_chemical_formula_structural   Ba4Sr2Gd2Co4O15
_chemical_formula_sum   'Ba8 Sr4 Gd4 Co8 O30'
_cell_volume   819.55757206
_cell_formula_units_Z   2
loop_
 _symmetry_equiv_pos_site_id
 _symmetry_equiv_pos_as_xyz
  1  'x, y, z'
loop_
 _atom_site_type_symbol
 _atom_site_label
 _atom_site_symmetry_multiplicity
 _atom_site_fract_x
 _atom_site_fract_y
 _atom_site_fract_z
 _atom_site_occupancy
  Ba  Ba0  1  0.32939800  0.17324500  0.64915200  1
  Ba  Ba1  1  0.32635600  0.65128800  0.17402600  1
  Ba  Ba2  1  0.33380400  0.17410100  0.17342400  1
  Ba  Ba3  1  0.82694500  0.82372800  0.34840500  1
  Ba  Ba4  1  0.83378400  0.34464900  0.82824000  1
  Ba  Ba5  1  0.82634600  0.82696900  0.82674300  1
  Ba  Ba6  1  0.01507400  0.33433100  0.33198000  1
  Ba  Ba7  1  0.50612800  0.66569600  0.66924900  1
  Sr  Sr8  1  0.51576300  0.99983200  0.00007100  1
  Sr  Sr9  1  0.01693100  0.00028000  0.00024500  1
  Sr  Sr10  1  0.66495500  0.04947700  0.47518300  1
  Sr  Sr11  1  0.16898200  0.52301800  0.52474100  1
  Gd  Gd12  1  0.66027100  0.47627800  0.04507200  1
  Gd  Gd13  1  0.66751400  0.47492400  0.47467600  1
  Gd  Gd14  1  0.16145000  0.52077800  0.95427400  1
  Gd  Gd15  1  0.16872000  0.95262200  0.52335500  1
  Co  Co16  1  0.83903200  0.17341600  0.64755200  1
  Co  Co17  1  0.83286400  0.64857700  0.17280700  1
  Co  Co18  1  0.84205800  0.17343300  0.17974500  1
  Co  Co19  1  0.33697100  0.82104500  0.35187200  1
  Co  Co20  1  0.34515300  0.35058900  0.82146100  1
  Co  Co21  1  0.33112700  0.82170600  0.82692800  1
  Co  Co22  1  0.48227500  0.33154000  0.32996200  1
  Co  Co23  1  0.96459000  0.66465200  0.66711500  1
  O  O24  1  0.48220200  0.66783500  0.39348800  1
  O  O25  1  0.47061700  0.39862000  0.93750400  1
  O  O26  1  0.44784900  0.93401800  0.66759900  1
  O  O27  1  0.48417600  0.39565700  0.67058500  1
  O  O28  1  0.45486500  0.93686100  0.39476100  1
  O  O29  1  0.46284400  0.66311300  0.93989500  1
  O  O30  1  0.95406500  0.33286100  0.60475100  1
  O  O31  1  0.96271400  0.60381600  0.05942800  1
  O  O32  1  0.98212900  0.06785800  0.32820800  1
  O  O33  1  0.94905800  0.60168500  0.33313100  1
  O  O34  1  0.98102300  0.06208700  0.60731400  1
  O  O35  1  0.96467800  0.33735700  0.06390800  1
  O  O36  1  0.66492600  0.25717200  0.50021800  1
  O  O37  1  0.65978300  0.50307400  0.24531500  1
  O  O38  1  0.65999200  0.26048500  0.24042000  1
  O  O39  1  0.16235100  0.75793000  0.49653800  1
  O  O40  1  0.16325900  0.49499300  0.76320700  1
  O  O41  1  0.15865000  0.74621300  0.75653100  1
  O  O42  1  0.32978300  0.42049000  0.16024100  1
  O  O43  1  0.32431100  0.16866700  0.41562900  1
  O  O44  1  0.34343800  0.41264400  0.41180800  1
  O  O45  1  0.82705700  0.58125000  0.83883100  1
  O  O46  1  0.84265600  0.83269800  0.58612700  1
  O  O47  1  0.82792600  0.58372500  0.58648300  1
  O  O48  1  0.25689900  0.90577900  0.18087000  1
  O  O49  1  0.25456400  0.18436800  0.91166500  1
  O  O50  1  0.25907000  0.90680400  0.91398300  1
  O  O51  1  0.75692600  0.08846700  0.81830800  1
  O  O52  1  0.76098200  0.82066600  0.08706000  1
  O  O53  1  0.75191600  0.09663700  0.08991900  1
