# generated using pymatgen
data_Li9Co7O16
_symmetry_space_group_name_H-M   'P 1'
_cell_length_a   5.68867100
_cell_length_b   6.41409750
_cell_length_c   7.55193999
_cell_angle_alpha   88.97583503
_cell_angle_beta   100.97745503
_cell_angle_gamma   102.86435416
_symmetry_Int_Tables_number   1
_chemical_formula_structural   Li9Co7O16
_chemical_formula_sum   'Li9 Co7 O16'
_cell_volume   263.63440259
_cell_formula_units_Z   1
loop_
 _symmetry_equiv_pos_site_id
 _symmetry_equiv_pos_as_xyz
  1  'x, y, z'
loop_
 _atom_site_type_symbol
 _atom_site_label
 _atom_site_symmetry_multiplicity
 _atom_site_fract_x
 _atom_site_fract_y
 _atom_site_fract_z
 _atom_site_occupancy
  Li  Li0  1  0.62110800  0.12895400  0.87798200  1
  Li  Li1  1  0.62491800  0.62350500  0.36980600  1
  Li  Li2  1  0.87744100  0.37794300  0.62563700  1
  Li  Li3  1  0.86607300  0.86737000  0.12119800  1
  Li  Li4  1  0.12255900  0.62205700  0.37436300  1
  Li  Li5  1  0.13392700  0.13263000  0.87880200  1
  Li  Li6  1  0.37889200  0.87104600  0.12201800  1
  Li  Li7  1  0.37508200  0.37649500  0.63019400  1
  Li  Li8  1  0.50000000  0.50000000  0.00000000  1
  Co  Co9  1  0.74729300  0.25073600  0.24698300  1
  Co  Co10  1  0.00000000  0.50000000  0.00000000  1
  Co  Co11  1  0.74820000  0.74891200  0.75273500  1
  Co  Co12  1  0.00000000  0.00000000  0.50000000  1
  Co  Co13  1  0.25270700  0.74926400  0.75301700  1
  Co  Co14  1  0.25180000  0.25108800  0.24726500  1
  Co  Co15  1  0.50000000  0.00000000  0.50000000  1
  O  O16  1  0.44143700  0.18979600  0.08340000  1
  O  O17  1  0.44478600  0.70536700  0.57725000  1
  O  O18  1  0.71097500  0.45701200  0.82006600  1
  O  O19  1  0.69489000  0.95538100  0.32580400  1
  O  O20  1  0.94516900  0.70729600  0.57651500  1
  O  O21  1  0.94479100  0.20624400  0.07408600  1
  O  O22  1  0.19490800  0.95786900  0.32663800  1
  O  O23  1  0.17804500  0.45718200  0.82136200  1
  O  O24  1  0.80509200  0.04213100  0.67336200  1
  O  O25  1  0.82195500  0.54281800  0.17863800  1
  O  O26  1  0.05483100  0.29270400  0.42348500  1
  O  O27  1  0.05520900  0.79375600  0.92591400  1
  O  O28  1  0.28902500  0.54298800  0.17993400  1
  O  O29  1  0.30511000  0.04461900  0.67419600  1
  O  O30  1  0.55856300  0.81020400  0.91660000  1
  O  O31  1  0.55521400  0.29463300  0.42275000  1
