# generated using pymatgen
data_Lu6Te2Au
_symmetry_space_group_name_H-M   'P 1'
_cell_length_a   4.01646400
_cell_length_b   11.35872700
_cell_length_c   21.23374200
_cell_angle_alpha   90.00000000
_cell_angle_beta   90.00000000
_cell_angle_gamma   90.00000000
_symmetry_Int_Tables_number   1
_chemical_formula_structural   Lu6Te2Au
_chemical_formula_sum   'Lu24 Te8 Au4'
_cell_volume   968.72403808
_cell_formula_units_Z   4
loop_
 _symmetry_equiv_pos_site_id
 _symmetry_equiv_pos_as_xyz
  1  'x, y, z'
loop_
 _atom_site_type_symbol
 _atom_site_label
 _atom_site_symmetry_multiplicity
 _atom_site_fract_x
 _atom_site_fract_y
 _atom_site_fract_z
 _atom_site_occupancy
  Lu  Lu0  1  0.25000000  0.18628500  0.60858500  1
  Lu  Lu1  1  0.25000000  0.31371500  0.10858500  1
  Lu  Lu2  1  0.75000000  0.81371500  0.39141500  1
  Lu  Lu3  1  0.75000000  0.68628500  0.89141500  1
  Lu  Lu4  1  0.25000000  0.46995300  0.65773200  1
  Lu  Lu5  1  0.25000000  0.03004700  0.15773200  1
  Lu  Lu6  1  0.75000000  0.53004700  0.34226800  1
  Lu  Lu7  1  0.75000000  0.96995300  0.84226800  1
  Lu  Lu8  1  0.25000000  0.76008300  0.76753300  1
  Lu  Lu9  1  0.25000000  0.73991700  0.26753300  1
  Lu  Lu10  1  0.75000000  0.23991700  0.23246700  1
  Lu  Lu11  1  0.75000000  0.26008300  0.73246700  1
  Lu  Lu12  1  0.25000000  0.12200000  0.97454600  1
  Lu  Lu13  1  0.25000000  0.37800000  0.47454600  1
  Lu  Lu14  1  0.75000000  0.87800000  0.02545400  1
  Lu  Lu15  1  0.75000000  0.62200000  0.52545400  1
  Lu  Lu16  1  0.25000000  0.43801400  0.86011600  1
  Lu  Lu17  1  0.25000000  0.06198600  0.36011600  1
  Lu  Lu18  1  0.75000000  0.56198600  0.13988400  1
  Lu  Lu19  1  0.75000000  0.93801400  0.63988400  1
  Lu  Lu20  1  0.25000000  0.88907800  0.50684300  1
  Lu  Lu21  1  0.25000000  0.61092200  0.00684300  1
  Lu  Lu22  1  0.75000000  0.11092200  0.49315700  1
  Lu  Lu23  1  0.75000000  0.38907800  0.99315700  1
  Te  Te24  1  0.25000000  0.04337300  0.73664800  1
  Te  Te25  1  0.25000000  0.45662700  0.23664800  1
  Te  Te26  1  0.75000000  0.95662700  0.26335200  1
  Te  Te27  1  0.75000000  0.54337300  0.76335200  1
  Te  Te28  1  0.25000000  0.73227400  0.62595000  1
  Te  Te29  1  0.25000000  0.76772600  0.12595000  1
  Te  Te30  1  0.75000000  0.26772600  0.37405000  1
  Te  Te31  1  0.75000000  0.23227400  0.87405000  1
  Au  Au32  1  0.25000000  0.86805100  0.92425000  1
  Au  Au33  1  0.25000000  0.63194900  0.42425000  1
  Au  Au34  1  0.75000000  0.13194900  0.07575000  1
  Au  Au35  1  0.75000000  0.36805100  0.57575000  1
