# generated using pymatgen
data_Mn3V2O8
_symmetry_space_group_name_H-M   'P 1'
_cell_length_a   6.32940402
_cell_length_b   6.75213487
_cell_length_c   8.62032108
_cell_angle_alpha   90.00000000
_cell_angle_beta   90.00000000
_cell_angle_gamma   117.94971703
_symmetry_Int_Tables_number   1
_chemical_formula_structural   Mn3V2O8
_chemical_formula_sum   'Mn6 V4 O16'
_cell_volume   325.43535802
_cell_formula_units_Z   2
loop_
 _symmetry_equiv_pos_site_id
 _symmetry_equiv_pos_as_xyz
  1  'x, y, z'
loop_
 _atom_site_type_symbol
 _atom_site_label
 _atom_site_symmetry_multiplicity
 _atom_site_fract_x
 _atom_site_fract_y
 _atom_site_fract_z
 _atom_site_occupancy
  O  O0  1  0.10734953  0.76686016  0.50145541  1
  O  O1  1  0.34049090  0.23314048  0.49854394  1
  O  O2  1  0.39265079  0.23314048  0.00145567  1
  O  O3  1  0.15950943  0.76686016  0.99854368  1
  O  O4  1  0.89265037  0.23314048  0.49854394  1
  O  O5  1  0.65951062  0.76686016  0.50145541  1
  O  O6  1  0.60735073  0.76686016  0.99854368  1
  O  O7  1  0.84049048  0.23314048  0.00145567  1
  O  O8  1  0.49946965  0.99893931  0.74876457  1
  O  O9  1  0.50053025  0.00106133  0.25123596  1
  O  O10  1  0.25390693  0.50781386  0.77804979  1
  O  O11  1  0.74609298  0.49218679  0.22194955  1
  O  O12  1  0.24609339  0.49218679  0.27805071  1
  O  O13  1  0.00053067  0.00106133  0.24876431  1
  O  O14  1  0.99946924  0.99893931  0.75123623  1
  O  O15  1  0.75390652  0.50781386  0.72194982  1
  V  V16  1  0.88052060  0.76104202  0.61831519  1
  V  V17  1  0.11947931  0.23895862  0.38168416  1
  V  V18  1  0.61947890  0.23895862  0.11831610  1
  V  V19  1  0.38052101  0.76104202  0.88168443  1
  Mn  Mn20  1  0.11199104  0.72398167  0.25000013  1
  Mn  Mn21  1  0.38800928  0.27601898  0.75000040  1
  Mn  Mn22  1  0.61199063  0.72398167  0.25000013  1
  Mn  Mn23  1  0.88800887  0.27601898  0.75000040  1
  Mn  Mn24  1  0.49999959  0.00000000  0.50000027  1
  Mn  Mn25  1  0.00000000  0.00000000  0.00000000  1
