# generated using pymatgen
data_Na2CeO3
_symmetry_space_group_name_H-M   'P 1'
_cell_length_a   7.64928008
_cell_length_b   7.64928008
_cell_length_c   18.38083542
_cell_angle_alpha   83.18441494
_cell_angle_beta   83.18441494
_cell_angle_gamma   85.44007675
_symmetry_Int_Tables_number   1
_chemical_formula_structural   Na2CeO3
_chemical_formula_sum   'Na24 Ce12 O36'
_cell_volume   1058.00654480
_cell_formula_units_Z   12
loop_
 _symmetry_equiv_pos_site_id
 _symmetry_equiv_pos_as_xyz
  1  'x, y, z'
loop_
 _atom_site_type_symbol
 _atom_site_label
 _atom_site_symmetry_multiplicity
 _atom_site_fract_x
 _atom_site_fract_y
 _atom_site_fract_z
 _atom_site_occupancy
  Na  Na0  1  0.66929900  0.82560500  0.33434700  1
  Na  Na1  1  0.67145200  0.81763900  0.99562800  1
  Na  Na2  1  0.08582200  0.91417800  0.25000000  1
  Na  Na3  1  0.66092200  0.83686300  0.66544000  1
  Na  Na4  1  0.83686300  0.66092200  0.16544000  1
  Na  Na5  1  0.49045800  0.00560600  0.16827900  1
  Na  Na6  1  0.82560500  0.66929900  0.83434700  1
  Na  Na7  1  0.58339800  0.41795500  0.41807000  1
  Na  Na8  1  0.50954200  0.99439400  0.83172100  1
  Na  Na9  1  0.81763900  0.67145200  0.49562800  1
  Na  Na10  1  0.58204500  0.41660200  0.08193000  1
  Na  Na11  1  0.50000000  0.00000000  0.50000000  1
  Na  Na12  1  0.99439400  0.50954200  0.33172100  1
  Na  Na13  1  0.00000000  0.50000000  0.00000000  1
  Na  Na14  1  0.00560600  0.49045800  0.66827900  1
  Na  Na15  1  0.41795500  0.58339800  0.91807000  1
  Na  Na16  1  0.18236100  0.32854800  0.50437200  1
  Na  Na17  1  0.41660200  0.58204500  0.58193000  1
  Na  Na18  1  0.17439500  0.33070100  0.16565300  1
  Na  Na19  1  0.16313700  0.33907800  0.83456000  1
  Na  Na20  1  0.33907800  0.16313700  0.33456000  1
  Na  Na21  1  0.91417800  0.08582200  0.75000000  1
  Na  Na22  1  0.32854800  0.18236100  0.00437200  1
  Na  Na23  1  0.33070100  0.17439500  0.66565300  1
  Ce  Ce24  1  0.08546000  0.91693600  0.91387000  1
  Ce  Ce25  1  0.08306400  0.91454000  0.58613000  1
  Ce  Ce26  1  0.26207200  0.73913200  0.41934000  1
  Ce  Ce27  1  0.26086800  0.73792800  0.08066000  1
  Ce  Ce28  1  0.24958800  0.75041200  0.75000000  1
  Ce  Ce29  1  0.58539300  0.41460700  0.75000000  1
  Ce  Ce30  1  0.41460700  0.58539300  0.25000000  1
  Ce  Ce31  1  0.75041200  0.24958800  0.25000000  1
  Ce  Ce32  1  0.73913200  0.26207200  0.91934000  1
  Ce  Ce33  1  0.73792800  0.26086800  0.58066000  1
  Ce  Ce34  1  0.91693600  0.08546000  0.41387000  1
  Ce  Ce35  1  0.91454000  0.08306400  0.08613000  1
  O  O36  1  0.51626100  0.71736500  0.45538600  1
  O  O37  1  0.51395500  0.70401200  0.13338600  1
  O  O38  1  0.18917000  0.02068800  0.46170200  1
  O  O39  1  0.52761400  0.69644700  0.78074600  1
  O  O40  1  0.18902400  0.02443300  0.11656700  1
  O  O41  1  0.97556700  0.81097600  0.38343300  1
  O  O42  1  0.20515900  0.01032100  0.80046400  1
  O  O43  1  0.97931200  0.81083000  0.03829800  1
  O  O44  1  0.37025600  0.84152000  0.30040900  1
  O  O45  1  0.69644700  0.52761400  0.28074600  1
  O  O46  1  0.98967900  0.79484100  0.69953600  1
  O  O47  1  0.34143000  0.87054000  0.96303400  1
  O  O48  1  0.71736500  0.51626100  0.95538600  1
  O  O49  1  0.33959800  0.87409700  0.63413200  1
  O  O50  1  0.15848000  0.62974400  0.19959100  1
  O  O51  1  0.87054000  0.34143000  0.46303400  1
  O  O52  1  0.70401200  0.51395500  0.63338600  1
  O  O53  1  0.12590300  0.66040200  0.86586800  1
  O  O54  1  0.87409700  0.33959800  0.13413200  1
  O  O55  1  0.29598800  0.48604500  0.36661400  1
  O  O56  1  0.12946000  0.65857000  0.53696600  1
  O  O57  1  0.84152000  0.37025600  0.80040900  1
  O  O58  1  0.66040200  0.12590300  0.36586800  1
  O  O59  1  0.28263500  0.48373900  0.04461400  1
  O  O60  1  0.65857000  0.12946000  0.03696600  1
  O  O61  1  0.01032100  0.20515900  0.30046400  1
  O  O62  1  0.30355300  0.47238600  0.71925400  1
  O  O63  1  0.62974400  0.15848000  0.69959100  1
  O  O64  1  0.02068800  0.18917000  0.96170200  1
  O  O65  1  0.79484100  0.98967900  0.19953600  1
  O  O66  1  0.02443300  0.18902400  0.61656700  1
  O  O67  1  0.81097600  0.97556700  0.88343300  1
  O  O68  1  0.47238600  0.30355300  0.21925400  1
  O  O69  1  0.81083000  0.97931200  0.53829800  1
  O  O70  1  0.48604500  0.29598800  0.86661400  1
  O  O71  1  0.48373900  0.28263500  0.54461400  1
