# generated using pymatgen
data_Al2Bi7Ru(BrCl4)2
_symmetry_space_group_name_H-M   'P 1'
_cell_length_a   18.45560100
_cell_length_b   10.05595000
_cell_length_c   15.15990182
_cell_angle_alpha   69.97119107
_cell_angle_beta   90.00000000
_cell_angle_gamma   90.00000000
_symmetry_Int_Tables_number   1
_chemical_formula_structural   Al2Bi7Ru(BrCl4)2
_chemical_formula_sum   'Al8 Bi28 Ru4 Br8 Cl32'
_cell_volume   2643.34568023
_cell_formula_units_Z   4
loop_
 _symmetry_equiv_pos_site_id
 _symmetry_equiv_pos_as_xyz
  1  'x, y, z'
loop_
 _atom_site_type_symbol
 _atom_site_label
 _atom_site_symmetry_multiplicity
 _atom_site_fract_x
 _atom_site_fract_y
 _atom_site_fract_z
 _atom_site_occupancy
  Al  Al0  1  0.32087500  0.35839700  0.94331800  1
  Al  Al1  1  0.17912500  0.35839700  0.44331800  1
  Al  Al2  1  0.67912500  0.64160300  0.05668200  1
  Al  Al3  1  0.82087500  0.64160300  0.55668200  1
  Al  Al4  1  0.36897300  0.67786700  0.15470400  1
  Al  Al5  1  0.13102700  0.67786700  0.65470400  1
  Al  Al6  1  0.63102700  0.32213300  0.84529600  1
  Al  Al7  1  0.86897300  0.32213300  0.34529600  1
  Bi  Bi8  1  0.90440100  0.14430500  0.02951300  1
  Bi  Bi9  1  0.59559900  0.14430500  0.52951300  1
  Bi  Bi10  1  0.09559900  0.85569500  0.97048700  1
  Bi  Bi11  1  0.40440100  0.85569500  0.47048700  1
  Bi  Bi12  1  0.92896000  0.78840000  0.07672300  1
  Bi  Bi13  1  0.57104000  0.78840000  0.57672300  1
  Bi  Bi14  1  0.07104000  0.21160000  0.92327700  1
  Bi  Bi15  1  0.42896000  0.21160000  0.42327700  1
  Bi  Bi16  1  0.18188300  0.01410500  0.14217700  1
  Bi  Bi17  1  0.31811700  0.01410500  0.64217700  1
  Bi  Bi18  1  0.81811700  0.98589500  0.85782300  1
  Bi  Bi19  1  0.68188300  0.98589500  0.35782300  1
  Bi  Bi20  1  0.09475000  0.73687500  0.23729100  1
  Bi  Bi21  1  0.40525000  0.73687500  0.73729100  1
  Bi  Bi22  1  0.90525000  0.26312500  0.76270900  1
  Bi  Bi23  1  0.59475000  0.26312500  0.26270900  1
  Bi  Bi24  1  0.97013200  0.91200800  0.27624200  1
  Bi  Bi25  1  0.52986800  0.91200800  0.77624200  1
  Bi  Bi26  1  0.02986800  0.08799200  0.72375800  1
  Bi  Bi27  1  0.47013200  0.08799200  0.22375800  1
  Bi  Bi28  1  0.05757200  0.18752600  0.18767700  1
  Bi  Bi29  1  0.44242800  0.18752600  0.68767700  1
  Bi  Bi30  1  0.94242800  0.81247400  0.81232300  1
  Bi  Bi31  1  0.55757200  0.81247400  0.31232300  1
  Bi  Bi32  1  0.12847600  0.94300100  0.35491800  1
  Bi  Bi33  1  0.37152400  0.94300100  0.85491800  1
  Bi  Bi34  1  0.87152400  0.05699900  0.64508200  1
  Bi  Bi35  1  0.62847600  0.05699900  0.14508200  1
  Ru  Ru36  1  0.03355100  0.98915300  0.08922300  1
  Ru  Ru37  1  0.46644900  0.98915300  0.58922300  1
  Ru  Ru38  1  0.96644900  0.01084700  0.91077700  1
  Ru  Ru39  1  0.53355100  0.01084700  0.41077700  1
  Br  Br40  1  0.80531100  0.92343400  0.14512000  1
  Br  Br41  1  0.69468900  0.92343400  0.64512000  1
  Br  Br42  1  0.19468900  0.07656600  0.85488000  1
  Br  Br43  1  0.30531100  0.07656600  0.35488000  1
  Br  Br44  1  0.03968600  0.57093400  0.08752100  1
  Br  Br45  1  0.46031400  0.57093400  0.58752100  1
  Br  Br46  1  0.96031400  0.42906600  0.91247900  1
  Br  Br47  1  0.53968600  0.42906600  0.41247900  1
  Cl  Cl48  1  0.40240200  0.50003400  0.96164300  1
  Cl  Cl49  1  0.09759800  0.50003400  0.46164300  1
  Cl  Cl50  1  0.59759800  0.49996600  0.03835700  1
  Cl  Cl51  1  0.90240200  0.49996600  0.53835700  1
  Cl  Cl52  1  0.35165000  0.13901100  0.01611100  1
  Cl  Cl53  1  0.14835000  0.13901100  0.51611100  1
  Cl  Cl54  1  0.64835000  0.86098900  0.98388900  1
  Cl  Cl55  1  0.85165000  0.86098900  0.48388900  1
  Cl  Cl56  1  0.31302000  0.39768400  0.79468400  1
  Cl  Cl57  1  0.18698000  0.39768400  0.29468400  1
  Cl  Cl58  1  0.68698000  0.60231600  0.20531600  1
  Cl  Cl59  1  0.81302000  0.60231600  0.70531600  1
  Cl  Cl60  1  0.21737100  0.38741900  0.00263000  1
  Cl  Cl61  1  0.28262900  0.38741900  0.50263000  1
  Cl  Cl62  1  0.78262900  0.61258100  0.99737000  1
  Cl  Cl63  1  0.71737100  0.61258100  0.49737000  1
  Cl  Cl64  1  0.27364900  0.72834600  0.06526400  1
  Cl  Cl65  1  0.22635100  0.72834600  0.56526400  1
  Cl  Cl66  1  0.72635100  0.27165400  0.93473600  1
  Cl  Cl67  1  0.77364900  0.27165400  0.43473600  1
  Cl  Cl68  1  0.45982400  0.79583000  0.07605400  1
  Cl  Cl69  1  0.04017600  0.79583000  0.57605400  1
  Cl  Cl70  1  0.54017600  0.20417000  0.92394600  1
  Cl  Cl71  1  0.95982400  0.20417000  0.42394600  1
  Cl  Cl72  1  0.39225000  0.45428900  0.20577900  1
  Cl  Cl73  1  0.10775000  0.45428900  0.70577900  1
  Cl  Cl74  1  0.60775000  0.54571100  0.79422100  1
  Cl  Cl75  1  0.89225000  0.54571100  0.29422100  1
  Cl  Cl76  1  0.34833100  0.75103700  0.27162500  1
  Cl  Cl77  1  0.15166900  0.75103700  0.77162500  1
  Cl  Cl78  1  0.65166900  0.24896300  0.72837500  1
  Cl  Cl79  1  0.84833100  0.24896300  0.22837500  1
