# generated using pymatgen
data_Te4Rh3
_symmetry_space_group_name_H-M   'P 1'
_cell_length_a   6.79366955
_cell_length_b   6.79366955
_cell_length_c   6.95193593
_cell_angle_alpha   61.80215556
_cell_angle_beta   61.80215556
_cell_angle_gamma   34.52222864
_symmetry_Int_Tables_number   1
_chemical_formula_structural   Te4Rh3
_chemical_formula_sum   'Te4 Rh3'
_cell_volume   158.01933688
_cell_formula_units_Z   1
loop_
 _symmetry_equiv_pos_site_id
 _symmetry_equiv_pos_as_xyz
  1  'x, y, z'
loop_
 _atom_site_type_symbol
 _atom_site_label
 _atom_site_symmetry_multiplicity
 _atom_site_fract_x
 _atom_site_fract_y
 _atom_site_fract_z
 _atom_site_occupancy
  Te  Te0  1  0.36653900  0.36653900  0.97734900  1
  Te  Te1  1  0.63346100  0.63346100  0.02265100  1
  Te  Te2  1  0.12353200  0.12353200  0.54226600  1
  Te  Te3  1  0.87646800  0.87646800  0.45773400  1
  Rh  Rh4  1  0.00000000  0.00000000  0.00000000  1
  Rh  Rh5  1  0.26182600  0.26182600  0.72306100  1
  Rh  Rh6  1  0.73817400  0.73817400  0.27693900  1
