# generated using pymatgen
data_CaLaFeSbO6
_symmetry_space_group_name_H-M   'P 1'
_cell_length_a   5.62187315
_cell_length_b   8.02689286
_cell_length_c   5.77079388
_cell_angle_alpha   90.09357738
_cell_angle_beta   88.80228513
_cell_angle_gamma   89.72060289
_symmetry_Int_Tables_number   1
_chemical_formula_structural   CaLaFeSbO6
_chemical_formula_sum   'Ca2 La2 Fe2 Sb2 O12'
_cell_volume   260.35346230
_cell_formula_units_Z   2
loop_
 _symmetry_equiv_pos_site_id
 _symmetry_equiv_pos_as_xyz
  1  'x, y, z'
loop_
 _atom_site_type_symbol
 _atom_site_label
 _atom_site_symmetry_multiplicity
 _atom_site_fract_x
 _atom_site_fract_y
 _atom_site_fract_z
 _atom_site_occupancy
  Ca  Ca0  1  0.50997400  0.25212000  0.55455500  1
  Ca  Ca1  1  0.02015600  0.74995100  0.94451200  1
  La  La2  1  0.98135500  0.24945800  0.05101000  1
  La  La3  1  0.49238500  0.74806900  0.45030600  1
  Fe  Fe4  1  0.49945700  0.50051900  0.99974900  1
  Fe  Fe5  1  0.99921900  0.00092600  0.49968500  1
  Sb  Sb6  1  0.00105100  0.49892500  0.50256600  1
  Sb  Sb7  1  0.49869200  0.99915800  0.99742500  1
  O  O8  1  0.60605100  0.76019000  0.03103100  1
  O  O9  1  0.10127400  0.25920500  0.47076900  1
  O  O10  1  0.20834200  0.94680100  0.19660200  1
  O  O11  1  0.71311100  0.44979500  0.31164000  1
  O  O12  1  0.19253900  0.55195900  0.20998400  1
  O  O13  1  0.68584700  0.05715600  0.28187800  1
  O  O14  1  0.90655500  0.74050100  0.53451300  1
  O  O15  1  0.39942300  0.24012300  0.96361000  1
  O  O16  1  0.28537800  0.54916000  0.69501100  1
  O  O17  1  0.78617400  0.05298100  0.79656500  1
  O  O18  1  0.30797100  0.94335200  0.71743400  1
  O  O19  1  0.80505000  0.44965000  0.79115500  1
