# generated using pymatgen
data_CsSbWO6
_symmetry_space_group_name_H-M   'P 1'
_cell_length_a   7.40350025
_cell_length_b   7.43387242
_cell_length_c   7.32741724
_cell_angle_alpha   90.00000000
_cell_angle_beta   60.33936979
_cell_angle_gamma   120.13579325
_symmetry_Int_Tables_number   1
_chemical_formula_structural   CsSbWO6
_chemical_formula_sum   'Cs2 Sb2 W2 O12'
_cell_volume   286.02997286
_cell_formula_units_Z   2
loop_
 _symmetry_equiv_pos_site_id
 _symmetry_equiv_pos_as_xyz
  1  'x, y, z'
loop_
 _atom_site_type_symbol
 _atom_site_label
 _atom_site_symmetry_multiplicity
 _atom_site_fract_x
 _atom_site_fract_y
 _atom_site_fract_z
 _atom_site_occupancy
  Cs  Cs0  1  0.74564356  0.37508311  0.87717822  1
  Cs  Cs1  1  0.25435644  0.62943955  0.12282178  1
  Sb  Sb2  1  0.00000000  0.00220804  0.50000000  1
  Sb  Sb3  1  0.00000000  0.00220804  1.00000000  1
  W  W4  1  0.50003266  0.00227336  0.49998367  1
  W  W5  1  0.49996734  0.50224070  0.50001633  1
  O  O6  1  0.85301257  0.92869210  0.82349372  1
  O  O7  1  0.61656704  0.31051589  0.44171648  1
  O  O8  1  0.25412820  0.32158990  0.81065173  1
  O  O9  1  0.25414362  0.93697321  0.43521272  1
  O  O10  1  0.25414362  0.93697321  0.81064366  1
  O  O11  1  0.25412820  0.32158990  0.43522007  1
  O  O12  1  0.14698743  0.07567953  0.17650628  1
  O  O13  1  0.38343296  0.69394785  0.55828352  1
  O  O14  1  0.74585638  0.68283059  0.18935634  1
  O  O15  1  0.74587180  0.06746170  0.56477993  1
  O  O16  1  0.74587180  0.06746170  0.18934827  1
  O  O17  1  0.74585638  0.68283059  0.56478728  1
