# generated using pymatgen
data_Ba3CoO5
_symmetry_space_group_name_H-M   'P 1'
_cell_length_a   7.38861100
_cell_length_b   7.38860000
_cell_length_c   11.73449800
_cell_angle_alpha   89.99993969
_cell_angle_beta   90.00032398
_cell_angle_gamma   89.99965880
_symmetry_Int_Tables_number   1
_chemical_formula_structural   Ba3CoO5
_chemical_formula_sum   'Ba12 Co4 O20'
_cell_volume   640.60374470
_cell_formula_units_Z   4
loop_
 _symmetry_equiv_pos_site_id
 _symmetry_equiv_pos_as_xyz
  1  'x, y, z'
loop_
 _atom_site_type_symbol
 _atom_site_label
 _atom_site_symmetry_multiplicity
 _atom_site_fract_x
 _atom_site_fract_y
 _atom_site_fract_z
 _atom_site_occupancy
  Ba  Ba0  1  0.99999900  0.00000200  0.25000200  1
  Ba  Ba1  1  0.50000200  0.50000100  0.74999700  1
  Ba  Ba2  1  0.50000000  0.49999900  0.25000000  1
  Ba  Ba3  1  0.00000100  0.00000000  0.75000000  1
  Ba  Ba4  1  0.67611800  0.17611500  0.00000500  1
  Ba  Ba5  1  0.17611800  0.67611300  0.50000000  1
  Ba  Ba6  1  0.32388500  0.82388500  0.00000200  1
  Ba  Ba7  1  0.82388100  0.32388800  0.49999800  1
  Ba  Ba8  1  0.82388300  0.67611600  0.00000100  1
  Ba  Ba9  1  0.32388400  0.17611500  0.49999800  1
  Ba  Ba10  1  0.17611400  0.32388500  0.99999800  1
  Ba  Ba11  1  0.67611800  0.82388300  0.49999700  1
  Co  Co12  1  0.50000100  0.00000200  0.75000000  1
  Co  Co13  1  0.00000000  0.50000000  0.75000100  1
  Co  Co14  1  0.99999900  0.50000000  0.25000100  1
  Co  Co15  1  0.50000000  0.00000000  0.25000000  1
  O  O16  1  0.00000000  0.00000100  0.00001200  1
  O  O17  1  0.49999900  0.50000000  0.49999000  1
  O  O18  1  0.49999900  0.49999800  0.00001000  1
  O  O19  1  0.99999700  0.00000100  0.49998900  1
  O  O20  1  0.13677900  0.63677900  0.15633500  1
  O  O21  1  0.63677600  0.13677500  0.65633300  1
  O  O22  1  0.36321900  0.86321800  0.34366200  1
  O  O23  1  0.86322200  0.36322200  0.84366600  1
  O  O24  1  0.86322100  0.36322100  0.15633600  1
  O  O25  1  0.36322600  0.86322500  0.65633500  1
  O  O26  1  0.36321900  0.13678000  0.15633700  1
  O  O27  1  0.86322400  0.63677500  0.65633400  1
  O  O28  1  0.86322200  0.63678000  0.34366400  1
  O  O29  1  0.36322400  0.13677800  0.84366500  1
  O  O30  1  0.63678100  0.13678200  0.34366200  1
  O  O31  1  0.13677700  0.63677800  0.84366700  1
  O  O32  1  0.13678000  0.36322100  0.34366500  1
  O  O33  1  0.63677600  0.86322300  0.84366600  1
  O  O34  1  0.63678000  0.86321700  0.15633700  1
  O  O35  1  0.13677600  0.36322300  0.65633400  1
