# generated using pymatgen
data_RbCuTeS3
_symmetry_space_group_name_H-M   'P 1'
_cell_length_a   10.63266100
_cell_length_b   7.52333900
_cell_length_c   8.22831330
_cell_angle_alpha   74.13965298
_cell_angle_beta   90.00000000
_cell_angle_gamma   90.00000000
_symmetry_Int_Tables_number   1
_chemical_formula_structural   RbCuTeS3
_chemical_formula_sum   'Rb4 Cu4 Te4 S12'
_cell_volume   633.15085032
_cell_formula_units_Z   4
loop_
 _symmetry_equiv_pos_site_id
 _symmetry_equiv_pos_as_xyz
  1  'x, y, z'
loop_
 _atom_site_type_symbol
 _atom_site_label
 _atom_site_symmetry_multiplicity
 _atom_site_fract_x
 _atom_site_fract_y
 _atom_site_fract_z
 _atom_site_occupancy
  Rb  Rb0  1  0.23692300  0.47386000  0.88440500  1
  Rb  Rb1  1  0.76307700  0.52614000  0.11559500  1
  Rb  Rb2  1  0.73692300  0.52614000  0.61559500  1
  Rb  Rb3  1  0.26307700  0.47386000  0.38440500  1
  Cu  Cu4  1  0.24970800  0.91668500  0.52068800  1
  Cu  Cu5  1  0.75029200  0.08331500  0.47931200  1
  Cu  Cu6  1  0.74970800  0.08331500  0.97931200  1
  Cu  Cu7  1  0.25029200  0.91668500  0.02068800  1
  Te  Te8  1  0.49791800  0.93580200  0.76732100  1
  Te  Te9  1  0.50208200  0.06419800  0.23267900  1
  Te  Te10  1  0.99791800  0.06419800  0.73267900  1
  Te  Te11  1  0.00208200  0.93580200  0.26732100  1
  S  S12  1  0.06424800  0.74680700  0.53979400  1
  S  S13  1  0.93575200  0.25319300  0.46020600  1
  S  S14  1  0.56424800  0.25319300  0.96020600  1
  S  S15  1  0.43575200  0.74680700  0.03979400  1
  S  S16  1  0.72605300  0.89548800  0.77487600  1
  S  S17  1  0.27394700  0.10451200  0.22512400  1
  S  S18  1  0.22605300  0.10451200  0.72512400  1
  S  S19  1  0.77394700  0.89548800  0.27487600  1
  S  S20  1  0.43402800  0.74432400  0.59061400  1
  S  S21  1  0.56597200  0.25567600  0.40938600  1
  S  S22  1  0.93402800  0.25567600  0.90938600  1
  S  S23  1  0.06597200  0.74432400  0.09061400  1
