# generated using pymatgen
data_Pr2AlGe6
_symmetry_space_group_name_H-M   'P 1'
_cell_length_a   6.10743566
_cell_length_b   6.10743566
_cell_length_c   10.80337666
_cell_angle_alpha   82.09077320
_cell_angle_beta   82.09077320
_cell_angle_gamma   92.52234830
_symmetry_Int_Tables_number   1
_chemical_formula_structural   Pr2AlGe6
_chemical_formula_sum   'Pr4 Al2 Ge12'
_cell_volume   394.52947749
_cell_formula_units_Z   2
loop_
 _symmetry_equiv_pos_site_id
 _symmetry_equiv_pos_as_xyz
  1  'x, y, z'
loop_
 _atom_site_type_symbol
 _atom_site_label
 _atom_site_symmetry_multiplicity
 _atom_site_fract_x
 _atom_site_fract_y
 _atom_site_fract_z
 _atom_site_occupancy
  Pr  Pr0  1  0.83751500  0.33378500  0.66300100  1
  Pr  Pr1  1  0.33378500  0.83751500  0.66300100  1
  Pr  Pr2  1  0.16248500  0.66621500  0.33699900  1
  Pr  Pr3  1  0.66621500  0.16248500  0.33699900  1
  Al  Al4  1  0.79968800  0.79968800  0.80480800  1
  Al  Al5  1  0.20031200  0.20031200  0.19519200  1
  Ge  Ge6  1  0.14668900  0.14668900  0.43649100  1
  Ge  Ge7  1  0.85331100  0.85331100  0.56350900  1
  Ge  Ge8  1  0.36045900  0.36045900  0.58116600  1
  Ge  Ge9  1  0.63954100  0.63954100  0.41883400  1
  Ge  Ge10  1  0.06539300  0.49244200  0.88565700  1
  Ge  Ge11  1  0.49244200  0.06539300  0.88565700  1
  Ge  Ge12  1  0.93460700  0.50755800  0.11434300  1
  Ge  Ge13  1  0.50755800  0.93460700  0.11434300  1
  Ge  Ge14  1  0.06902500  0.06902500  0.88603200  1
  Ge  Ge15  1  0.93097500  0.93097500  0.11396800  1
  Ge  Ge16  1  0.48858100  0.48858100  0.88567700  1
  Ge  Ge17  1  0.51141900  0.51141900  0.11432300  1
