# generated using pymatgen
data_Tb3(In3Pt)4
_symmetry_space_group_name_H-M   'P 1'
_cell_length_a   10.05153778
_cell_length_b   10.05153778
_cell_length_c   15.45614300
_cell_angle_alpha   90.00000000
_cell_angle_beta   90.00000000
_cell_angle_gamma   119.99999855
_symmetry_Int_Tables_number   1
_chemical_formula_structural   Tb3(In3Pt)4
_chemical_formula_sum   'Tb9 In36 Pt12'
_cell_volume   1352.37391026
_cell_formula_units_Z   3
loop_
 _symmetry_equiv_pos_site_id
 _symmetry_equiv_pos_as_xyz
  1  'x, y, z'
loop_
 _atom_site_type_symbol
 _atom_site_label
 _atom_site_symmetry_multiplicity
 _atom_site_fract_x
 _atom_site_fract_y
 _atom_site_fract_z
 _atom_site_occupancy
  Tb  Tb0  1  0.33333300  0.66666700  0.01358200  1
  Tb  Tb1  1  0.66666700  0.33333300  0.98641800  1
  Tb  Tb2  1  0.50739000  0.49261000  0.30526700  1
  Tb  Tb3  1  0.49261000  0.50739000  0.69473300  1
  Tb  Tb4  1  0.50739000  0.01477900  0.30526700  1
  Tb  Tb5  1  0.49261000  0.98522100  0.69473300  1
  Tb  Tb6  1  0.98522100  0.49261000  0.30526700  1
  Tb  Tb7  1  0.01477900  0.50739000  0.69473300  1
  Tb  Tb8  1  0.00000000  0.00000000  0.50000000  1
  In  In9  1  0.33333300  0.66666700  0.38409000  1
  In  In10  1  0.66666700  0.33333300  0.61591000  1
  In  In11  1  0.21224100  0.78775900  0.18650500  1
  In  In12  1  0.78775900  0.21224100  0.81349500  1
  In  In13  1  0.21224100  0.42448300  0.18650500  1
  In  In14  1  0.78775900  0.57551700  0.81349500  1
  In  In15  1  0.57551700  0.78775900  0.18650500  1
  In  In16  1  0.42448300  0.21224100  0.81349500  1
  In  In17  1  0.77843700  0.22156300  0.16754200  1
  In  In18  1  0.22156300  0.77843700  0.83245800  1
  In  In19  1  0.77843700  0.55687400  0.16754200  1
  In  In20  1  0.22156300  0.44312600  0.83245800  1
  In  In21  1  0.44312600  0.22156300  0.16754200  1
  In  In22  1  0.55687400  0.77843700  0.83245800  1
  In  In23  1  0.33333300  0.66666700  0.58067500  1
  In  In24  1  0.66666700  0.33333300  0.41932500  1
  In  In25  1  0.28686400  0.00000000  0.00000000  1
  In  In26  1  0.71313600  0.00000000  0.00000000  1
  In  In27  1  0.00000000  0.28686400  0.00000000  1
  In  In28  1  0.00000000  0.71313600  0.00000000  1
  In  In29  1  0.71313600  0.71313600  0.00000000  1
  In  In30  1  0.28686400  0.28686400  0.00000000  1
  In  In31  1  0.00000000  0.00000000  0.12740000  1
  In  In32  1  0.00000000  0.00000000  0.87260000  1
  In  In33  1  0.34979200  0.00000000  0.50000000  1
  In  In34  1  0.65020800  0.00000000  0.50000000  1
  In  In35  1  0.00000000  0.34979200  0.50000000  1
  In  In36  1  0.00000000  0.65020800  0.50000000  1
  In  In37  1  0.65020800  0.65020800  0.50000000  1
  In  In38  1  0.34979200  0.34979200  0.50000000  1
  In  In39  1  0.88136900  0.11863100  0.32140200  1
  In  In40  1  0.11863100  0.88136900  0.67859800  1
  In  In41  1  0.88136900  0.76273800  0.32140200  1
  In  In42  1  0.11863100  0.23726200  0.67859800  1
  In  In43  1  0.23726200  0.11863100  0.32140200  1
  In  In44  1  0.76273800  0.88136900  0.67859800  1
  Pt  Pt45  1  0.49462300  0.50537700  0.11101200  1
  Pt  Pt46  1  0.50537700  0.49462300  0.88898800  1
  Pt  Pt47  1  0.49462300  0.98924500  0.11101200  1
  Pt  Pt48  1  0.50537700  0.01075500  0.88898800  1
  Pt  Pt49  1  0.01075500  0.50537700  0.11101200  1
  Pt  Pt50  1  0.98924500  0.49462300  0.88898800  1
  Pt  Pt51  1  0.17248200  0.82751800  0.36137100  1
  Pt  Pt52  1  0.82751800  0.17248200  0.63862900  1
  Pt  Pt53  1  0.17248200  0.34496400  0.36137100  1
  Pt  Pt54  1  0.82751800  0.65503600  0.63862900  1
  Pt  Pt55  1  0.65503600  0.82751800  0.36137100  1
  Pt  Pt56  1  0.34496400  0.17248200  0.63862900  1
