# generated using pymatgen
data_Pr23Mg4Pt7
_symmetry_space_group_name_H-M   'P 1'
_cell_length_a   10.22769278
_cell_length_b   10.22769278
_cell_length_c   23.10771000
_cell_angle_alpha   90.00000000
_cell_angle_beta   90.00000000
_cell_angle_gamma   120.00000507
_symmetry_Int_Tables_number   1
_chemical_formula_structural   Pr23Mg4Pt7
_chemical_formula_sum   'Pr46 Mg8 Pt14'
_cell_volume   2093.35491666
_cell_formula_units_Z   2
loop_
 _symmetry_equiv_pos_site_id
 _symmetry_equiv_pos_as_xyz
  1  'x, y, z'
loop_
 _atom_site_type_symbol
 _atom_site_label
 _atom_site_symmetry_multiplicity
 _atom_site_fract_x
 _atom_site_fract_y
 _atom_site_fract_z
 _atom_site_occupancy
  Pr  Pr0  1  0.20600900  0.41201800  0.72023500  1
  Pr  Pr1  1  0.20600900  0.79399100  0.72023500  1
  Pr  Pr2  1  0.79399100  0.58798200  0.22023500  1
  Pr  Pr3  1  0.58798200  0.79399100  0.72023500  1
  Pr  Pr4  1  0.79399100  0.20600900  0.22023500  1
  Pr  Pr5  1  0.41201800  0.20600900  0.22023500  1
  Pr  Pr6  1  0.79363400  0.58726800  0.94603500  1
  Pr  Pr7  1  0.79363400  0.20636600  0.94603500  1
  Pr  Pr8  1  0.20636600  0.41273200  0.44603500  1
  Pr  Pr9  1  0.41273200  0.20636600  0.94603500  1
  Pr  Pr10  1  0.20636600  0.79363400  0.44603500  1
  Pr  Pr11  1  0.58726800  0.79363400  0.44603500  1
  Pr  Pr12  1  0.21182800  0.42365700  0.99026500  1
  Pr  Pr13  1  0.21182800  0.78817200  0.99026500  1
  Pr  Pr14  1  0.78817200  0.57634300  0.49026500  1
  Pr  Pr15  1  0.57634300  0.78817200  0.99026500  1
  Pr  Pr16  1  0.78817200  0.21182800  0.49026500  1
  Pr  Pr17  1  0.42365700  0.21182800  0.49026500  1
  Pr  Pr18  1  0.87075800  0.74151500  0.63523300  1
  Pr  Pr19  1  0.87075800  0.12924200  0.63523300  1
  Pr  Pr20  1  0.12924200  0.25848500  0.13523300  1
  Pr  Pr21  1  0.25848500  0.12924200  0.63523300  1
  Pr  Pr22  1  0.12924200  0.87075800  0.13523300  1
  Pr  Pr23  1  0.74151500  0.87075800  0.13523300  1
  Pr  Pr24  1  0.45636900  0.91273900  0.85646600  1
  Pr  Pr25  1  0.45636900  0.54363100  0.85646600  1
  Pr  Pr26  1  0.54363100  0.08726100  0.35646600  1
  Pr  Pr27  1  0.08726100  0.54363100  0.85646600  1
  Pr  Pr28  1  0.54363100  0.45636900  0.35646600  1
  Pr  Pr29  1  0.91273900  0.45636900  0.35646600  1
  Pr  Pr30  1  0.00000000  0.00000000  0.99863400  1
  Pr  Pr31  1  0.00000000  0.00000000  0.49863400  1
  Pr  Pr32  1  0.46147800  0.92295500  0.58524500  1
  Pr  Pr33  1  0.46147800  0.53852200  0.58524500  1
  Pr  Pr34  1  0.53852200  0.07704500  0.08524500  1
  Pr  Pr35  1  0.07704500  0.53852200  0.58524500  1
  Pr  Pr36  1  0.53852200  0.46147800  0.08524500  1
  Pr  Pr37  1  0.92295500  0.46147800  0.08524500  1
  Pr  Pr38  1  0.79798900  0.59597700  0.78282000  1
  Pr  Pr39  1  0.79798900  0.20201100  0.78282000  1
  Pr  Pr40  1  0.20201100  0.40402300  0.28282000  1
  Pr  Pr41  1  0.40402300  0.20201100  0.78282000  1
  Pr  Pr42  1  0.20201100  0.79798900  0.28282000  1
  Pr  Pr43  1  0.59597700  0.79798900  0.28282000  1
  Pr  Pr44  1  0.66666700  0.33333300  0.64295500  1
  Pr  Pr45  1  0.33333300  0.66666700  0.14295500  1
  Mg  Mg46  1  0.00000000  0.00000000  0.74981400  1
  Mg  Mg47  1  0.00000000  0.00000000  0.24981400  1
  Mg  Mg48  1  0.10599300  0.21198500  0.86309300  1
  Mg  Mg49  1  0.10599300  0.89400700  0.86309300  1
  Mg  Mg50  1  0.89400700  0.78801500  0.36309300  1
  Mg  Mg51  1  0.78801500  0.89400700  0.86309300  1
  Mg  Mg52  1  0.89400700  0.10599300  0.36309300  1
  Mg  Mg53  1  0.21198500  0.10599300  0.36309300  1
  Pt  Pt54  1  0.52234100  0.04468200  0.71023400  1
  Pt  Pt55  1  0.52234100  0.47765900  0.71023400  1
  Pt  Pt56  1  0.47765900  0.95531800  0.21023400  1
  Pt  Pt57  1  0.95531800  0.47765900  0.71023400  1
  Pt  Pt58  1  0.47765900  0.52234100  0.21023400  1
  Pt  Pt59  1  0.04468200  0.52234100  0.21023400  1
  Pt  Pt60  1  0.66666700  0.33333300  0.86195700  1
  Pt  Pt61  1  0.33333300  0.66666700  0.36195700  1
  Pt  Pt62  1  0.14339300  0.28678600  0.56482700  1
  Pt  Pt63  1  0.14339300  0.85660700  0.56482700  1
  Pt  Pt64  1  0.85660700  0.71321400  0.06482700  1
  Pt  Pt65  1  0.71321400  0.85660700  0.56482700  1
  Pt  Pt66  1  0.85660700  0.14339300  0.06482700  1
  Pt  Pt67  1  0.28678600  0.14339300  0.06482700  1
