# generated using pymatgen
data_CrH15N6Cl2O
_symmetry_space_group_name_H-M   'P 1'
_cell_length_a   7.02308863
_cell_length_b   7.03874403
_cell_length_c   10.68245400
_cell_angle_alpha   90.00000000
_cell_angle_beta   90.00000000
_cell_angle_gamma   95.05778953
_symmetry_Int_Tables_number   1
_chemical_formula_structural   CrH15N6Cl2O
_chemical_formula_sum   'Cr2 H30 N12 Cl4 O2'
_cell_volume   526.01730637
_cell_formula_units_Z   2
loop_
 _symmetry_equiv_pos_site_id
 _symmetry_equiv_pos_as_xyz
  1  'x, y, z'
loop_
 _atom_site_type_symbol
 _atom_site_label
 _atom_site_symmetry_multiplicity
 _atom_site_fract_x
 _atom_site_fract_y
 _atom_site_fract_z
 _atom_site_occupancy
  Cr  Cr0  1  0.79772100  0.79785000  0.75000000  1
  Cr  Cr1  1  0.20227900  0.20215000  0.25000000  1
  H  H2  1  0.92391700  0.44420600  0.75000000  1
  H  H3  1  0.55635000  0.07202900  0.25000000  1
  H  H4  1  0.07608300  0.55579400  0.25000000  1
  H  H5  1  0.44365000  0.92797100  0.75000000  1
  H  H6  1  0.68747000  0.68948200  0.51619700  1
  H  H7  1  0.31253000  0.31051800  0.48380300  1
  H  H8  1  0.68747000  0.68948200  0.98380300  1
  H  H9  1  0.31253000  0.31051800  0.01619700  1
  H  H10  1  0.07502100  0.59509100  0.67215700  1
  H  H11  1  0.40288600  0.92341400  0.32765400  1
  H  H12  1  0.07502100  0.59509100  0.82784300  1
  H  H13  1  0.40288600  0.92341400  0.17234600  1
  H  H14  1  0.92497900  0.40490900  0.32784300  1
  H  H15  1  0.59711400  0.07658600  0.67234600  1
  H  H16  1  0.92497900  0.40490900  0.17215700  1
  H  H17  1  0.59711400  0.07658600  0.82765400  1
  H  H18  1  0.91918600  0.75981900  0.51672900  1
  H  H19  1  0.24006000  0.08011300  0.48281300  1
  H  H20  1  0.91918600  0.75981900  0.98327100  1
  H  H21  1  0.24006000  0.08011300  0.01718700  1
  H  H22  1  0.08081400  0.24018100  0.48327100  1
  H  H23  1  0.75994000  0.91988700  0.51718700  1
  H  H24  1  0.08081400  0.24018100  0.01672900  1
  H  H25  1  0.75994000  0.91988700  0.98281300  1
  H  H26  1  0.58482900  0.48243300  0.67236100  1
  H  H27  1  0.58482900  0.48243300  0.82763900  1
  H  H28  1  0.41517100  0.51756700  0.32763900  1
  H  H29  1  0.41517100  0.51756700  0.17236100  1
  H  H30  1  0.44187900  0.61480100  0.75000000  1
  H  H31  1  0.55812100  0.38519900  0.25000000  1
  N  N32  1  0.78847400  0.78901800  0.55166500  1
  N  N33  1  0.21152600  0.21098200  0.44833500  1
  N  N34  1  0.78847400  0.78901800  0.94833500  1
  N  N35  1  0.21152600  0.21098200  0.05166500  1
  N  N36  1  0.98801500  0.98803500  0.75000000  1
  N  N37  1  0.01198500  0.01196500  0.25000000  1
  N  N38  1  0.98834400  0.58038100  0.75000000  1
  N  N39  1  0.41888900  0.01038500  0.25000000  1
  N  N40  1  0.01165600  0.41961900  0.25000000  1
  N  N41  1  0.58111100  0.98961500  0.75000000  1
  N  N42  1  0.57556500  0.56798100  0.75000000  1
  N  N43  1  0.42443500  0.43201900  0.25000000  1
  Cl  Cl44  1  0.28372100  0.71533600  0.49762700  1
  Cl  Cl45  1  0.28372100  0.71533600  0.00237300  1
  Cl  Cl46  1  0.71627900  0.28466400  0.50237300  1
  Cl  Cl47  1  0.71627900  0.28466400  0.99762700  1
  O  O48  1  0.11649400  0.11557000  0.75000000  1
  O  O49  1  0.88350600  0.88443000  0.25000000  1
