# generated using pymatgen
data_Ca3RhN3
_symmetry_space_group_name_H-M   'P 1'
_cell_length_a   7.34644368
_cell_length_b   7.34553170
_cell_length_c   4.97201901
_cell_angle_alpha   90.00000000
_cell_angle_beta   90.00000000
_cell_angle_gamma   119.71020445
_symmetry_Int_Tables_number   1
_chemical_formula_structural   Ca3RhN3
_chemical_formula_sum   'Ca6 Rh2 N6'
_cell_volume   233.03686269
_cell_formula_units_Z   2
loop_
 _symmetry_equiv_pos_site_id
 _symmetry_equiv_pos_as_xyz
  1  'x, y, z'
loop_
 _atom_site_type_symbol
 _atom_site_label
 _atom_site_symmetry_multiplicity
 _atom_site_fract_x
 _atom_site_fract_y
 _atom_site_fract_z
 _atom_site_occupancy
  Ca  Ca0  1  0.90601498  0.63608361  0.25000000  1
  Ca  Ca1  1  0.73639883  0.09421905  0.25000000  1
  Ca  Ca2  1  0.35964004  0.26649931  0.25000000  1
  Ca  Ca3  1  0.09398502  0.36391639  0.75000000  1
  Ca  Ca4  1  0.26360117  0.90578095  0.75000000  1
  Ca  Ca5  1  0.64035996  0.73350069  0.75000000  1
  Rh  Rh6  1  0.66555842  0.33181656  0.75000000  1
  Rh  Rh7  1  0.33444158  0.66818344  0.25000000  1
  N  N8  1  0.90019238  0.61165728  0.75000000  1
  N  N9  1  0.71706122  0.09956720  0.75000000  1
  N  N10  1  0.38387941  0.28425098  0.75000000  1
  N  N11  1  0.09980762  0.38834272  0.25000000  1
  N  N12  1  0.28293878  0.90043280  0.25000000  1
  N  N13  1  0.61612059  0.71574902  0.25000000  1
