# generated using pymatgen
data_V2O3
_symmetry_space_group_name_H-M   'P 1'
_cell_length_a   5.12568276
_cell_length_b   5.12568272
_cell_length_c   5.56360038
_cell_angle_alpha   62.57130650
_cell_angle_beta   89.99999474
_cell_angle_gamma   119.99999653
_symmetry_Int_Tables_number   1
_chemical_formula_structural   V2O3
_chemical_formula_sum   'V4 O6'
_cell_volume   107.19450338
_cell_formula_units_Z   2
loop_
 _symmetry_equiv_pos_site_id
 _symmetry_equiv_pos_as_xyz
  1  'x, y, z'
loop_
 _atom_site_type_symbol
 _atom_site_label
 _atom_site_symmetry_multiplicity
 _atom_site_fract_x
 _atom_site_fract_y
 _atom_site_fract_z
 _atom_site_occupancy
  V  V0  1  0.85102300  0.70204500  0.44693200  1
  V  V1  1  0.35102300  0.70204500  0.94693200  1
  V  V2  1  0.64897700  0.29795400  0.05306900  1
  V  V3  1  0.14897700  0.29795400  0.55306900  1
  O  O4  1  0.75000000  0.19653100  0.75000000  1
  O  O5  1  0.94653100  0.19653100  0.25000000  1
  O  O6  1  0.55346900  0.50000000  0.25000000  1
  O  O7  1  0.05346900  0.80347000  0.75000000  1
  O  O8  1  0.25000000  0.80347000  0.25000000  1
  O  O9  1  0.44653100  0.50000000  0.75000000  1
