# generated using pymatgen
data_SrMn(GeO3)2
_symmetry_space_group_name_H-M   'P 1'
_cell_length_a   5.60888205
_cell_length_b   7.10051073
_cell_length_c   14.20244602
_cell_angle_alpha   84.24778936
_cell_angle_beta   78.96677628
_cell_angle_gamma   78.96014370
_symmetry_Int_Tables_number   1
_chemical_formula_structural   SrMn(GeO3)2
_chemical_formula_sum   'Sr4 Mn4 Ge8 O24'
_cell_volume   543.70889998
_cell_formula_units_Z   4
loop_
 _symmetry_equiv_pos_site_id
 _symmetry_equiv_pos_as_xyz
  1  'x, y, z'
loop_
 _atom_site_type_symbol
 _atom_site_label
 _atom_site_symmetry_multiplicity
 _atom_site_fract_x
 _atom_site_fract_y
 _atom_site_fract_z
 _atom_site_occupancy
  Sr  Sr0  1  0.25000100  0.19113800  0.40441900  1
  Sr  Sr1  1  0.24997900  0.19114600  0.90441300  1
  Sr  Sr2  1  0.75001300  0.80885500  0.09558800  1
  Sr  Sr3  1  0.75000600  0.80886200  0.59558400  1
  Mn  Mn4  1  0.25004200  0.59344100  0.70325700  1
  Mn  Mn5  1  0.74995200  0.40656100  0.29674300  1
  Mn  Mn6  1  0.25006100  0.59341200  0.20325900  1
  Mn  Mn7  1  0.74994100  0.40658600  0.79673700  1
  Ge  Ge8  1  0.22040100  0.12203400  0.15681200  1
  Ge  Ge9  1  0.22038700  0.12205200  0.65681700  1
  Ge  Ge10  1  0.77961600  0.87794700  0.34318300  1
  Ge  Ge11  1  0.77960400  0.87797300  0.84319000  1
  Ge  Ge12  1  0.27961100  0.68635500  0.43897900  1
  Ge  Ge13  1  0.27959700  0.68635500  0.93897900  1
  Ge  Ge14  1  0.72040000  0.31364300  0.06101800  1
  Ge  Ge15  1  0.72039300  0.31364500  0.56101900  1
  O  O16  1  0.01472500  0.87526500  0.41642000  1
  O  O17  1  0.01472300  0.87527100  0.91642500  1
  O  O18  1  0.98528700  0.12472600  0.08357600  1
  O  O19  1  0.98527900  0.12473600  0.58358000  1
  O  O20  1  0.48521800  0.16722400  0.06238300  1
  O  O21  1  0.48521600  0.16722200  0.56238600  1
  O  O22  1  0.51478800  0.83277500  0.43761500  1
  O  O23  1  0.51477400  0.83277400  0.93762100  1
  O  O24  1  0.13913000  0.30175000  0.23841600  1
  O  O25  1  0.13909800  0.30177700  0.73841400  1
  O  O26  1  0.86089900  0.69822400  0.26158600  1
  O  O27  1  0.86086800  0.69824900  0.76158500  1
  O  O28  1  0.36062300  0.52326800  0.34906000  1
  O  O29  1  0.36061000  0.52328000  0.84905900  1
  O  O30  1  0.63938600  0.47672500  0.15093900  1
  O  O31  1  0.63937800  0.47673400  0.65093900  1
  O  O32  1  0.31971200  0.88696500  0.19780200  1
  O  O33  1  0.31970900  0.88698600  0.69780600  1
  O  O34  1  0.68029500  0.11301300  0.30219500  1
  O  O35  1  0.68027900  0.11303800  0.80220000  1
  O  O36  1  0.18042600  0.60435300  0.05651300  1
  O  O37  1  0.18042700  0.60437300  0.55651600  1
  O  O38  1  0.81957900  0.39562800  0.44348400  1
  O  O39  1  0.81956900  0.39563900  0.94348200  1
