# generated using pymatgen
data_RbMn4(AsO4)3
_symmetry_space_group_name_H-M   'P 1'
_cell_length_a   6.65884986
_cell_length_b   10.33637424
_cell_length_c   17.68711410
_cell_angle_alpha   90.00000000
_cell_angle_beta   90.00000000
_cell_angle_gamma   90.00000000
_symmetry_Int_Tables_number   1
_chemical_formula_structural   RbMn4(AsO4)3
_chemical_formula_sum   'Rb4 Mn16 As12 O48'
_cell_volume   1217.37513023
_cell_formula_units_Z   4
loop_
 _symmetry_equiv_pos_site_id
 _symmetry_equiv_pos_as_xyz
  1  'x, y, z'
loop_
 _atom_site_type_symbol
 _atom_site_label
 _atom_site_symmetry_multiplicity
 _atom_site_fract_x
 _atom_site_fract_y
 _atom_site_fract_z
 _atom_site_occupancy
  O  O0  1  0.50000031  0.12914718  0.51951045  1
  O  O1  1  0.50000031  0.87085279  0.48048992  1
  O  O2  1  0.00000000  0.62914717  0.98048953  1
  O  O3  1  0.00000000  0.37085280  0.01951027  1
  O  O4  1  0.71507181  0.89215281  0.18327110  1
  O  O5  1  0.71507181  0.10784716  0.81672927  1
  O  O6  1  0.78492913  0.39215282  0.31672908  1
  O  O7  1  0.78492913  0.60784714  0.68327072  1
  O  O8  1  0.28492881  0.10784716  0.81672927  1
  O  O9  1  0.28492881  0.89215281  0.18327110  1
  O  O10  1  0.21507150  0.60784714  0.68327072  1
  O  O11  1  0.21507150  0.39215282  0.31672908  1
  O  O12  1  0.70225135  0.65668156  0.40815411  1
  O  O13  1  0.70225135  0.34331841  0.59184569  1
  O  O14  1  0.79774807  0.15668158  0.09184607  1
  O  O15  1  0.79774807  0.84331839  0.90815429  1
  O  O16  1  0.29774927  0.34331841  0.59184569  1
  O  O17  1  0.29774927  0.65668156  0.40815411  1
  O  O18  1  0.20225104  0.84331839  0.90815429  1
  O  O19  1  0.70807199  0.59195825  0.11875841  1
  O  O20  1  0.50000031  0.63552285  0.54947132  1
  O  O21  1  0.50000031  0.36447712  0.45052905  1
  O  O22  1  0.00000000  0.13552286  0.95052866  1
  O  O23  1  0.00000000  0.86447711  0.04947114  1
  O  O24  1  0.50000031  0.38606172  0.74317319  1
  O  O25  1  0.50000031  0.61393825  0.25682661  1
  O  O26  1  0.00000000  0.88606170  0.75682679  1
  O  O27  1  0.00000000  0.11393827  0.24317301  1
  O  O28  1  0.50000031  0.11333653  0.68682327  1
  O  O29  1  0.50000031  0.88666344  0.31317653  1
  O  O30  1  0.00000000  0.61333651  0.81317671  1
  O  O31  1  0.00000000  0.38666346  0.18682365  1
  O  O32  1  0.00000000  0.12567585  0.67847875  1
  O  O33  1  0.00000000  0.87432412  0.32152161  1
  O  O34  1  0.50000031  0.62567583  0.82152123  1
  O  O35  1  0.50000031  0.37432414  0.17847857  1
  O  O36  1  0.00000000  0.62103159  0.27109556  1
  O  O37  1  0.00000000  0.37896935  0.72890480  1
  O  O38  1  0.50000031  0.12103063  0.22890462  1
  O  O39  1  0.50000031  0.87896934  0.77109518  1
  O  O40  1  0.20807320  0.09195827  0.38124178  1
  O  O41  1  0.20807320  0.90804170  0.61875859  1
  O  O42  1  0.29192711  0.59195825  0.11875841  1
  O  O43  1  0.29192711  0.40804172  0.88124139  1
  O  O44  1  0.79192743  0.90804170  0.61875859  1
  O  O45  1  0.79192743  0.09195827  0.38124178  1
  O  O46  1  0.70807199  0.40804172  0.88124139  1
  O  O47  1  0.20225104  0.15668158  0.09184607  1
  Mn  Mn48  1  0.75238064  0.74589591  0.29848839  1
  Mn  Mn49  1  0.75238064  0.25410406  0.70151198  1
  Mn  Mn50  1  0.74761878  0.24589593  0.20151179  1
  Mn  Mn51  1  0.74761878  0.75410404  0.79848800  1
  Mn  Mn52  1  0.24761847  0.25410406  0.70151198  1
  Mn  Mn53  1  0.24761847  0.74589591  0.29848839  1
  Mn  Mn54  1  0.25238184  0.75410404  0.79848800  1
  Mn  Mn55  1  0.25238184  0.24589593  0.20151179  1
  Mn  Mn56  1  0.50000031  0.52211681  0.64448333  1
  Mn  Mn57  1  0.50000031  0.47788315  0.35551646  1
  Mn  Mn58  1  0.00000000  0.02211683  0.85551665  1
  Mn  Mn59  1  0.00000000  0.97788314  0.14448315  1
  Mn  Mn60  1  0.50000031  0.96465913  0.59227504  1
  Mn  Mn61  1  0.50000031  0.03534084  0.40772533  1
  Mn  Mn62  1  0.00000000  0.46465915  0.90772494  1
  Mn  Mn63  1  0.00000000  0.53534082  0.09227486  1
  As  As64  1  0.50000031  0.29366613  0.53669230  1
  As  As65  1  0.50000031  0.70633384  0.46330750  1
  As  As66  1  0.00000000  0.79366612  0.96330768  1
  As  As67  1  0.00000000  0.20633385  0.03669268  1
  As  As68  1  0.50000031  0.04528245  0.77812645  1
  As  As69  1  0.50000031  0.95471752  0.22187335  1
  As  As70  1  0.00000000  0.54528243  0.72187353  1
  As  As71  1  0.00000000  0.45471754  0.27812627  1
  As  As72  1  0.50000031  0.45887754  0.83444435  1
  As  As73  1  0.50000031  0.54112243  0.16555545  1
  As  As74  1  0.00000000  0.95887753  0.66555563  1
  As  As75  1  0.00000000  0.04112244  0.33444474  1
  Rb  Rb76  1  0.50000031  0.19998184  0.96470511  1
  Rb  Rb77  1  0.50000031  0.80001813  0.03529526  1
  Rb  Rb78  1  0.00000000  0.69998182  0.53529487  1
  Rb  Rb79  1  0.00000000  0.30001815  0.46470492  1
