# generated using pymatgen
data_Ba4Si20Au3
_symmetry_space_group_name_H-M   'P 1'
_cell_length_a   10.51228300
_cell_length_b   10.51228300
_cell_length_c   10.51228300
_cell_angle_alpha   90.00000000
_cell_angle_beta   90.00000000
_cell_angle_gamma   90.00000000
_symmetry_Int_Tables_number   1
_chemical_formula_structural   Ba4Si20Au3
_chemical_formula_sum   'Ba8 Si40 Au6'
_cell_volume   1161.69235657
_cell_formula_units_Z   2
loop_
 _symmetry_equiv_pos_site_id
 _symmetry_equiv_pos_as_xyz
  1  'x, y, z'
loop_
 _atom_site_type_symbol
 _atom_site_label
 _atom_site_symmetry_multiplicity
 _atom_site_fract_x
 _atom_site_fract_y
 _atom_site_fract_z
 _atom_site_occupancy
  Ba  Ba0  1  0.50000000  0.50000000  0.50000000  1
  Ba  Ba1  1  0.00000000  0.00000000  0.00000000  1
  Ba  Ba2  1  0.00000000  0.50000000  0.75000000  1
  Ba  Ba3  1  0.50000000  0.25000000  0.00000000  1
  Ba  Ba4  1  0.75000000  0.00000000  0.50000000  1
  Ba  Ba5  1  0.00000000  0.50000000  0.25000000  1
  Ba  Ba6  1  0.50000000  0.75000000  0.00000000  1
  Ba  Ba7  1  0.25000000  0.00000000  0.50000000  1
  Si  Si8  1  0.68371900  0.31628100  0.68371900  1
  Si  Si9  1  0.31628100  0.68371900  0.31628100  1
  Si  Si10  1  0.68371900  0.68371900  0.31628100  1
  Si  Si11  1  0.31628100  0.31628100  0.68371900  1
  Si  Si12  1  0.31628100  0.68371900  0.68371900  1
  Si  Si13  1  0.68371900  0.31628100  0.31628100  1
  Si  Si14  1  0.31628100  0.31628100  0.31628100  1
  Si  Si15  1  0.68371900  0.68371900  0.68371900  1
  Si  Si16  1  0.18371900  0.18371900  0.81628100  1
  Si  Si17  1  0.81628100  0.81628100  0.18371900  1
  Si  Si18  1  0.18371900  0.81628100  0.18371900  1
  Si  Si19  1  0.81628100  0.18371900  0.81628100  1
  Si  Si20  1  0.81628100  0.18371900  0.18371900  1
  Si  Si21  1  0.18371900  0.81628100  0.81628100  1
  Si  Si22  1  0.81628100  0.81628100  0.81628100  1
  Si  Si23  1  0.18371900  0.18371900  0.18371900  1
  Si  Si24  1  0.80436800  0.38306200  0.50000000  1
  Si  Si25  1  0.61693800  0.50000000  0.80436800  1
  Si  Si26  1  0.50000000  0.19563200  0.61693800  1
  Si  Si27  1  0.19563200  0.61693800  0.50000000  1
  Si  Si28  1  0.38306200  0.50000000  0.19563200  1
  Si  Si29  1  0.50000000  0.80436800  0.38306200  1
  Si  Si30  1  0.80436800  0.61693800  0.50000000  1
  Si  Si31  1  0.61693800  0.50000000  0.19563200  1
  Si  Si32  1  0.19563200  0.38306200  0.50000000  1
  Si  Si33  1  0.38306200  0.50000000  0.80436800  1
  Si  Si34  1  0.50000000  0.80436800  0.61693800  1
  Si  Si35  1  0.50000000  0.19563200  0.38306200  1
  Si  Si36  1  0.30436800  0.00000000  0.88306200  1
  Si  Si37  1  0.11693800  0.30436800  0.00000000  1
  Si  Si38  1  0.00000000  0.11693800  0.69563200  1
  Si  Si39  1  0.69563200  0.00000000  0.11693800  1
  Si  Si40  1  0.88306200  0.69563200  0.00000000  1
  Si  Si41  1  0.00000000  0.88306200  0.30436800  1
  Si  Si42  1  0.30436800  0.00000000  0.11693800  1
  Si  Si43  1  0.11693800  0.69563200  0.00000000  1
  Si  Si44  1  0.69563200  0.00000000  0.88306200  1
  Si  Si45  1  0.88306200  0.30436800  0.00000000  1
  Si  Si46  1  0.00000000  0.11693800  0.30436800  1
  Si  Si47  1  0.00000000  0.88306200  0.69563200  1
  Au  Au48  1  0.50000000  0.00000000  0.75000000  1
  Au  Au49  1  0.00000000  0.25000000  0.50000000  1
  Au  Au50  1  0.75000000  0.50000000  0.00000000  1
  Au  Au51  1  0.50000000  0.00000000  0.25000000  1
  Au  Au52  1  0.00000000  0.75000000  0.50000000  1
  Au  Au53  1  0.25000000  0.50000000  0.00000000  1
