# generated using pymatgen
data_Tl2Ni2(MoO4)3
_symmetry_space_group_name_H-M   'P 1'
_cell_length_a   10.86481100
_cell_length_b   10.86481100
_cell_length_c   10.86481100
_cell_angle_alpha   90.00000000
_cell_angle_beta   90.00000000
_cell_angle_gamma   90.00000000
_symmetry_Int_Tables_number   1
_chemical_formula_structural   Tl2Ni2(MoO4)3
_chemical_formula_sum   'Tl8 Ni8 Mo12 O48'
_cell_volume   1282.52703245
_cell_formula_units_Z   4
loop_
 _symmetry_equiv_pos_site_id
 _symmetry_equiv_pos_as_xyz
  1  'x, y, z'
loop_
 _atom_site_type_symbol
 _atom_site_label
 _atom_site_symmetry_multiplicity
 _atom_site_fract_x
 _atom_site_fract_y
 _atom_site_fract_z
 _atom_site_occupancy
  Tl  Tl0  1  0.05455100  0.05455100  0.05455100  1
  Tl  Tl1  1  0.44544900  0.94544900  0.55455100  1
  Tl  Tl2  1  0.94544900  0.55455100  0.44544900  1
  Tl  Tl3  1  0.55455100  0.44544900  0.94544900  1
  Tl  Tl4  1  0.82197200  0.82197200  0.82197200  1
  Tl  Tl5  1  0.67802800  0.17802800  0.32197200  1
  Tl  Tl6  1  0.17802800  0.32197200  0.67802800  1
  Tl  Tl7  1  0.32197200  0.67802800  0.17802800  1
  Ni  Ni8  1  0.33662300  0.33662300  0.33662300  1
  Ni  Ni9  1  0.16337700  0.66337700  0.83662300  1
  Ni  Ni10  1  0.66337700  0.83662300  0.16337700  1
  Ni  Ni11  1  0.83662300  0.16337700  0.66337700  1
  Ni  Ni12  1  0.60585100  0.60585100  0.60585100  1
  Ni  Ni13  1  0.89414900  0.39414900  0.10585100  1
  Ni  Ni14  1  0.39414900  0.10585100  0.89414900  1
  Ni  Ni15  1  0.10585100  0.89414900  0.39414900  1
  Mo  Mo16  1  0.02283600  0.20906800  0.37651700  1
  Mo  Mo17  1  0.47716400  0.79093200  0.87651700  1
  Mo  Mo18  1  0.97716400  0.70906800  0.12348300  1
  Mo  Mo19  1  0.37651700  0.02283600  0.20906800  1
  Mo  Mo20  1  0.52283600  0.29093200  0.62348300  1
  Mo  Mo21  1  0.87651700  0.47716400  0.79093200  1
  Mo  Mo22  1  0.12348300  0.97716400  0.70906800  1
  Mo  Mo23  1  0.62348300  0.52283600  0.29093200  1
  Mo  Mo24  1  0.20906800  0.37651700  0.02283600  1
  Mo  Mo25  1  0.70906800  0.12348300  0.97716400  1
  Mo  Mo26  1  0.29093200  0.62348300  0.52283600  1
  Mo  Mo27  1  0.79093200  0.87651700  0.47716400  1
  O  O28  1  0.01765800  0.05098500  0.32479300  1
  O  O29  1  0.48234200  0.94901500  0.82479300  1
  O  O30  1  0.98234200  0.55098500  0.17520700  1
  O  O31  1  0.32479300  0.01765800  0.05098500  1
  O  O32  1  0.51765800  0.44901500  0.67520700  1
  O  O33  1  0.82479300  0.48234200  0.94901500  1
  O  O34  1  0.17520700  0.98234200  0.55098500  1
  O  O35  1  0.67520700  0.51765800  0.44901500  1
  O  O36  1  0.05098500  0.32479300  0.01765800  1
  O  O37  1  0.55098500  0.17520700  0.98234200  1
  O  O38  1  0.44901500  0.67520700  0.51765800  1
  O  O39  1  0.94901500  0.82479300  0.48234200  1
  O  O40  1  0.27242300  0.48452300  0.43682300  1
  O  O41  1  0.22757700  0.51547700  0.93682300  1
  O  O42  1  0.72757700  0.98452300  0.06317700  1
  O  O43  1  0.43682300  0.27242300  0.48452300  1
  O  O44  1  0.77242300  0.01547700  0.56317700  1
  O  O45  1  0.93682300  0.22757700  0.51547700  1
  O  O46  1  0.06317700  0.72757700  0.98452300  1
  O  O47  1  0.56317700  0.77242300  0.01547700  1
  O  O48  1  0.48452300  0.43682300  0.27242300  1
  O  O49  1  0.98452300  0.06317700  0.72757700  1
  O  O50  1  0.01547700  0.56317700  0.77242300  1
  O  O51  1  0.51547700  0.93682300  0.22757700  1
  O  O52  1  0.04974900  0.80446600  0.23674500  1
  O  O53  1  0.45025100  0.19553400  0.73674500  1
  O  O54  1  0.95025100  0.30446600  0.26325500  1
  O  O55  1  0.23674500  0.04974900  0.80446600  1
  O  O56  1  0.54974900  0.69553400  0.76325500  1
  O  O57  1  0.73674500  0.45025100  0.19553400  1
  O  O58  1  0.26325500  0.95025100  0.30446600  1
  O  O59  1  0.76325500  0.54974900  0.69553400  1
  O  O60  1  0.80446600  0.23674500  0.04974900  1
  O  O61  1  0.30446600  0.26325500  0.95025100  1
  O  O62  1  0.69553400  0.76325500  0.54974900  1
  O  O63  1  0.19553400  0.73674500  0.45025100  1
  O  O64  1  0.17868500  0.25552900  0.40378100  1
  O  O65  1  0.32131500  0.74447100  0.90378100  1
  O  O66  1  0.82131500  0.75552900  0.09621900  1
  O  O67  1  0.40378100  0.17868500  0.25552900  1
  O  O68  1  0.67868500  0.24447100  0.59621900  1
  O  O69  1  0.90378100  0.32131500  0.74447100  1
  O  O70  1  0.09621900  0.82131500  0.75552900  1
  O  O71  1  0.59621900  0.67868500  0.24447100  1
  O  O72  1  0.25552900  0.40378100  0.17868500  1
  O  O73  1  0.75552900  0.09621900  0.82131500  1
  O  O74  1  0.24447100  0.59621900  0.67868500  1
  O  O75  1  0.74447100  0.90378100  0.32131500  1
