# generated using pymatgen
data_SmYNi2
_symmetry_space_group_name_H-M   'P 1'
_cell_length_a   5.53839707
_cell_length_b   5.53839707
_cell_length_c   4.15380900
_cell_angle_alpha   90.00000000
_cell_angle_beta   90.00000000
_cell_angle_gamma   139.73413516
_symmetry_Int_Tables_number   1
_chemical_formula_structural   SmYNi2
_chemical_formula_sum   'Sm1 Y1 Ni2'
_cell_volume   82.35169994
_cell_formula_units_Z   1
loop_
 _symmetry_equiv_pos_site_id
 _symmetry_equiv_pos_as_xyz
  1  'x, y, z'
loop_
 _atom_site_type_symbol
 _atom_site_label
 _atom_site_symmetry_multiplicity
 _atom_site_fract_x
 _atom_site_fract_y
 _atom_site_fract_z
 _atom_site_occupancy
  Sm  Sm0  1  0.14141500  0.85858500  0.00000000  1
  Y  Y1  1  0.86039000  0.13961000  0.50000000  1
  Ni  Ni2  1  0.42876500  0.57123500  0.00000000  1
  Ni  Ni3  1  0.56942900  0.43057100  0.50000000  1
