# generated using pymatgen
data_LiSb2F7
_symmetry_space_group_name_H-M   'P 1'
_cell_length_a   4.90612000
_cell_length_b   8.90048400
_cell_length_c   14.67475000
_cell_angle_alpha   90.00000000
_cell_angle_beta   90.00000000
_cell_angle_gamma   90.00000000
_symmetry_Int_Tables_number   1
_chemical_formula_structural   LiSb2F7
_chemical_formula_sum   'Li4 Sb8 F28'
_cell_volume   640.79999789
_cell_formula_units_Z   4
loop_
 _symmetry_equiv_pos_site_id
 _symmetry_equiv_pos_as_xyz
  1  'x, y, z'
loop_
 _atom_site_type_symbol
 _atom_site_label
 _atom_site_symmetry_multiplicity
 _atom_site_fract_x
 _atom_site_fract_y
 _atom_site_fract_z
 _atom_site_occupancy
  Li  Li0  1  0.86830700  0.92895500  0.25000000  1
  Li  Li1  1  0.63169300  0.42895500  0.25000000  1
  Li  Li2  1  0.13169300  0.07104500  0.75000000  1
  Li  Li3  1  0.36830700  0.57104500  0.75000000  1
  Sb  Sb4  1  0.31259500  0.11402500  0.39893800  1
  Sb  Sb5  1  0.18740500  0.61402500  0.10106200  1
  Sb  Sb6  1  0.68740500  0.88597500  0.89893800  1
  Sb  Sb7  1  0.81259500  0.38597500  0.60106200  1
  Sb  Sb8  1  0.68740500  0.88597500  0.60106200  1
  Sb  Sb9  1  0.81259500  0.38597500  0.89893800  1
  Sb  Sb10  1  0.31259500  0.11402500  0.10106200  1
  Sb  Sb11  1  0.18740500  0.61402500  0.39893800  1
  F  F12  1  0.61700300  0.00353200  0.34290400  1
  F  F13  1  0.88299700  0.50353200  0.15709600  1
  F  F14  1  0.38299700  0.99646800  0.84290400  1
  F  F15  1  0.11700300  0.49646800  0.65709600  1
  F  F16  1  0.38299700  0.99646800  0.65709600  1
  F  F17  1  0.11700300  0.49646800  0.84290400  1
  F  F18  1  0.61700300  0.00353200  0.15709600  1
  F  F19  1  0.88299700  0.50353200  0.34290400  1
  F  F20  1  0.45248800  0.30403000  0.34692200  1
  F  F21  1  0.04751200  0.80403000  0.15307800  1
  F  F22  1  0.54751200  0.69597000  0.84692200  1
  F  F23  1  0.95248800  0.19597000  0.65307800  1
  F  F24  1  0.54751200  0.69597000  0.65307800  1
  F  F25  1  0.95248800  0.19597000  0.84692200  1
  F  F26  1  0.45248800  0.30403000  0.15307800  1
  F  F27  1  0.04751200  0.80403000  0.34692200  1
  F  F28  1  0.59382600  0.15095800  0.49884000  1
  F  F29  1  0.90617400  0.65095800  0.00116000  1
  F  F30  1  0.40617400  0.84904200  0.99884000  1
  F  F31  1  0.09382600  0.34904200  0.50116000  1
  F  F32  1  0.40617400  0.84904200  0.50116000  1
  F  F33  1  0.09382600  0.34904200  0.99884000  1
  F  F34  1  0.59382600  0.15095800  0.00116000  1
  F  F35  1  0.90617400  0.65095800  0.49884000  1
  F  F36  1  0.14677000  0.09022700  0.25000000  1
  F  F37  1  0.35323000  0.59022700  0.25000000  1
  F  F38  1  0.85323000  0.90977300  0.75000000  1
  F  F39  1  0.64677000  0.40977300  0.75000000  1
