# generated using pymatgen
data_Pr8Sb14Pt17
_symmetry_space_group_name_H-M   'P 1'
_cell_length_a   14.12595900
_cell_length_b   14.12595900
_cell_length_c   14.12595900
_cell_angle_alpha   126.61706819
_cell_angle_beta   126.61706819
_cell_angle_gamma   78.87629098
_symmetry_Int_Tables_number   1
_chemical_formula_structural   Pr8Sb14Pt17
_chemical_formula_sum   'Pr16 Sb28 Pt34'
_cell_volume   1756.94521679
_cell_formula_units_Z   2
loop_
 _symmetry_equiv_pos_site_id
 _symmetry_equiv_pos_as_xyz
  1  'x, y, z'
loop_
 _atom_site_type_symbol
 _atom_site_label
 _atom_site_symmetry_multiplicity
 _atom_site_fract_x
 _atom_site_fract_y
 _atom_site_fract_z
 _atom_site_occupancy
  Pr  Pr0  1  0.93013500  0.43013500  0.99861900  1
  Pr  Pr1  1  0.43151600  0.93151600  0.00138100  1
  Pr  Pr2  1  0.43013500  0.43151600  0.50000000  1
  Pr  Pr3  1  0.93151600  0.93013500  0.50000000  1
  Pr  Pr4  1  0.17748600  0.17748600  0.00000000  1
  Pr  Pr5  1  0.67748600  0.67748600  0.00000000  1
  Pr  Pr6  1  0.17132000  0.67132000  0.50000000  1
  Pr  Pr7  1  0.67132000  0.17132000  0.50000000  1
  Pr  Pr8  1  0.67194000  0.43921700  0.26463400  1
  Pr  Pr9  1  0.17458400  0.40730600  0.73536600  1
  Pr  Pr10  1  0.43921700  0.17458400  0.76727800  1
  Pr  Pr11  1  0.67458400  0.93921700  0.76727800  1
  Pr  Pr12  1  0.40730600  0.67194000  0.23272200  1
  Pr  Pr13  1  0.17194000  0.90730600  0.23272200  1
  Pr  Pr14  1  0.90730600  0.67458400  0.73536600  1
  Pr  Pr15  1  0.93921700  0.17194000  0.26463400  1
  Sb  Sb16  1  0.24445700  0.49150700  0.26183700  1
  Sb  Sb17  1  0.22967100  0.98262000  0.73816300  1
  Sb  Sb18  1  0.49150700  0.22967100  0.24705100  1
  Sb  Sb19  1  0.72967100  0.99150700  0.24705100  1
  Sb  Sb20  1  0.98262000  0.24445700  0.75294900  1
  Sb  Sb21  1  0.74445700  0.48262000  0.75294900  1
  Sb  Sb22  1  0.48262000  0.72967100  0.73816300  1
  Sb  Sb23  1  0.99150700  0.74445700  0.26183700  1
  Sb  Sb24  1  0.17926800  0.20144400  0.27512700  1
  Sb  Sb25  1  0.92631700  0.90414100  0.72487300  1
  Sb  Sb26  1  0.20144400  0.92631700  0.02217600  1
  Sb  Sb27  1  0.42631700  0.70144400  0.02217600  1
  Sb  Sb28  1  0.90414100  0.17926800  0.97782400  1
  Sb  Sb29  1  0.67926800  0.40414100  0.97782400  1
  Sb  Sb30  1  0.40414100  0.42631700  0.72487300  1
  Sb  Sb31  1  0.70144400  0.67926800  0.27512700  1
  Sb  Sb32  1  0.37654800  0.37654800  0.00000000  1
  Sb  Sb33  1  0.87654800  0.87654800  0.00000000  1
  Sb  Sb34  1  0.13476000  0.63476000  0.69399200  1
  Sb  Sb35  1  0.94076800  0.44076800  0.30600800  1
  Sb  Sb36  1  0.63476000  0.94076800  0.50000000  1
  Sb  Sb37  1  0.44076800  0.13476000  0.50000000  1
  Sb  Sb38  1  0.40120600  0.90120600  0.50000000  1
  Sb  Sb39  1  0.90120600  0.40120600  0.50000000  1
  Sb  Sb40  1  0.07950300  0.57950300  0.94655400  1
  Sb  Sb41  1  0.63294900  0.13294900  0.05344600  1
  Sb  Sb42  1  0.57950300  0.63294900  0.50000000  1
  Sb  Sb43  1  0.13294900  0.07950300  0.50000000  1
  Pt  Pt44  1  0.37182700  0.13899200  0.27267200  1
  Pt  Pt45  1  0.86632000  0.09915500  0.72732800  1
  Pt  Pt46  1  0.13899200  0.86632000  0.76716400  1
  Pt  Pt47  1  0.36632000  0.63899200  0.76716400  1
  Pt  Pt48  1  0.09915500  0.37182700  0.23283600  1
  Pt  Pt49  1  0.87182700  0.59915500  0.23283600  1
  Pt  Pt50  1  0.59915500  0.36632000  0.72732800  1
  Pt  Pt51  1  0.63899200  0.87182700  0.27267200  1
  Pt  Pt52  1  0.88618600  0.38618600  0.67010700  1
  Pt  Pt53  1  0.71607900  0.21607900  0.32989300  1
  Pt  Pt54  1  0.38618600  0.71607900  0.50000000  1
  Pt  Pt55  1  0.21607900  0.88618600  0.50000000  1
  Pt  Pt56  1  0.66179000  0.16179000  0.74148000  1
  Pt  Pt57  1  0.42031000  0.92031000  0.25852000  1
  Pt  Pt58  1  0.16179000  0.42031000  0.50000000  1
  Pt  Pt59  1  0.92031000  0.66179000  0.50000000  1
  Pt  Pt60  1  0.21036200  0.71036200  0.96890200  1
  Pt  Pt61  1  0.74145900  0.24145900  0.03109800  1
  Pt  Pt62  1  0.71036200  0.74145900  0.50000000  1
  Pt  Pt63  1  0.24145900  0.21036200  0.50000000  1
  Pt  Pt64  1  0.42640300  0.41382000  0.23831800  1
  Pt  Pt65  1  0.17550200  0.18808600  0.76168200  1
  Pt  Pt66  1  0.41382000  0.17550200  0.98741600  1
  Pt  Pt67  1  0.67550200  0.91382000  0.98741600  1
  Pt  Pt68  1  0.18808600  0.42640300  0.01258400  1
  Pt  Pt69  1  0.92640300  0.68808600  0.01258400  1
  Pt  Pt70  1  0.68808600  0.67550200  0.76168200  1
  Pt  Pt71  1  0.91382000  0.92640300  0.23831800  1
  Pt  Pt72  1  0.44638400  0.94638400  0.78135700  1
  Pt  Pt73  1  0.16502800  0.66502800  0.21864300  1
  Pt  Pt74  1  0.94638400  0.16502800  0.50000000  1
  Pt  Pt75  1  0.66502800  0.44638400  0.50000000  1
  Pt  Pt76  1  0.00093400  0.00093400  0.00000000  1
  Pt  Pt77  1  0.50093400  0.50093400  0.00000000  1
