# generated using pymatgen
data_NdGaSi
_symmetry_space_group_name_H-M   'P 1'
_cell_length_a   7.76691760
_cell_length_b   7.76691760
_cell_length_c   7.76691760
_cell_angle_alpha   148.48280945
_cell_angle_beta   148.48280945
_cell_angle_gamma   45.17314456
_symmetry_Int_Tables_number   1
_chemical_formula_structural   NdGaSi
_chemical_formula_sum   'Nd2 Ga2 Si2'
_cell_volume   127.63214176
_cell_formula_units_Z   2
loop_
 _symmetry_equiv_pos_site_id
 _symmetry_equiv_pos_as_xyz
  1  'x, y, z'
loop_
 _atom_site_type_symbol
 _atom_site_label
 _atom_site_symmetry_multiplicity
 _atom_site_fract_x
 _atom_site_fract_y
 _atom_site_fract_z
 _atom_site_occupancy
  Nd  Nd0  1  0.62497400  0.12497400  0.50000000  1
  Nd  Nd1  1  0.87497400  0.87497400  0.00000000  1
  Ga  Ga2  1  0.29145500  0.29145500  0.00000000  1
  Ga  Ga3  1  0.04145500  0.54145500  0.50000000  1
  Si  Si4  1  0.20857100  0.70857100  0.50000000  1
  Si  Si5  1  0.45857100  0.45857100  0.00000000  1
