# generated using pymatgen
data_Sr2MnTeO6
_symmetry_space_group_name_H-M   'P 1'
_cell_length_a   8.16301918
_cell_length_b   8.15353987
_cell_length_c   8.13980137
_cell_angle_alpha   90.08392952
_cell_angle_beta   90.09389232
_cell_angle_gamma   90.10383144
_symmetry_Int_Tables_number   1
_chemical_formula_structural   Sr2MnTeO6
_chemical_formula_sum   'Sr8 Mn4 Te4 O24'
_cell_volume   541.76264807
_cell_formula_units_Z   4
loop_
 _symmetry_equiv_pos_site_id
 _symmetry_equiv_pos_as_xyz
  1  'x, y, z'
loop_
 _atom_site_type_symbol
 _atom_site_label
 _atom_site_symmetry_multiplicity
 _atom_site_fract_x
 _atom_site_fract_y
 _atom_site_fract_z
 _atom_site_occupancy
  Sr  Sr0  1  0.76105000  0.23322900  0.74972500  1
  Sr  Sr1  1  0.26097900  0.73321400  0.74977600  1
  Sr  Sr2  1  0.23902100  0.76671000  0.25024400  1
  Sr  Sr3  1  0.73894700  0.26670000  0.25029600  1
  Sr  Sr4  1  0.26664000  0.23898900  0.75029400  1
  Sr  Sr5  1  0.76671300  0.73898400  0.75026900  1
  Sr  Sr6  1  0.73331400  0.76110000  0.24971000  1
  Sr  Sr7  1  0.23339000  0.26108600  0.24968700  1
  Mn  Mn8  1  0.49998400  0.50030300  0.49980600  1
  Mn  Mn9  1  0.99996000  0.49994200  0.00011300  1
  Mn  Mn10  1  0.00002000  0.00000800  0.49975000  1
  Mn  Mn11  1  0.49995300  0.00003000  0.00002400  1
  Te  Te12  1  0.99998500  0.99997000  0.00001800  1
  Te  Te13  1  0.49997200  0.50004500  0.00002900  1
  Te  Te14  1  0.49999300  0.99998200  0.49996300  1
  Te  Te15  1  0.00002800  0.50001200  0.50000400  1
  O  O16  1  0.76351400  0.97049700  0.96654700  1
  O  O17  1  0.26349600  0.47054300  0.96657400  1
  O  O18  1  0.23647300  0.02938200  0.03356600  1
  O  O19  1  0.73644700  0.52942900  0.03360000  1
  O  O20  1  0.52931600  0.23671600  0.53331800  1
  O  O21  1  0.02938200  0.73669400  0.53332400  1
  O  O22  1  0.47062900  0.76335900  0.46660700  1
  O  O23  1  0.97069100  0.26333600  0.46662100  1
  O  O24  1  0.52579300  0.53977100  0.76375700  1
  O  O25  1  0.02580200  0.03963900  0.76367300  1
  O  O26  1  0.47412800  0.46034200  0.23630400  1
  O  O27  1  0.97414400  0.96021800  0.23622500  1
  O  O28  1  0.46009200  0.97417700  0.73626500  1
  O  O29  1  0.96011500  0.47423500  0.73628800  1
  O  O30  1  0.53994700  0.02569400  0.26374300  1
  O  O31  1  0.03999600  0.52573300  0.26377100  1
  O  O32  1  0.53164600  0.26398200  0.96450700  1
  O  O33  1  0.03165200  0.76397800  0.96443800  1
  O  O34  1  0.46835100  0.73597600  0.03568200  1
  O  O35  1  0.96835000  0.23596300  0.03560400  1
  O  O36  1  0.73579700  0.96827400  0.53585400  1
  O  O37  1  0.23579800  0.46835500  0.53595200  1
  O  O38  1  0.26424400  0.03165900  0.46400000  1
  O  O39  1  0.76424800  0.53174200  0.46407300  1
