# generated using pymatgen
data_Sr2V2O7
_symmetry_space_group_name_H-M   'P 1'
_cell_length_a   7.19087900
_cell_length_b   7.19087900
_cell_length_c   26.06831900
_cell_angle_alpha   90.00000000
_cell_angle_beta   90.00000000
_cell_angle_gamma   90.00000000
_symmetry_Int_Tables_number   1
_chemical_formula_structural   Sr2V2O7
_chemical_formula_sum   'Sr16 V16 O56'
_cell_volume   1347.95995007
_cell_formula_units_Z   8
loop_
 _symmetry_equiv_pos_site_id
 _symmetry_equiv_pos_as_xyz
  1  'x, y, z'
loop_
 _atom_site_type_symbol
 _atom_site_label
 _atom_site_symmetry_multiplicity
 _atom_site_fract_x
 _atom_site_fract_y
 _atom_site_fract_z
 _atom_site_occupancy
  Sr  Sr0  1  0.21673500  0.08657000  0.39210600  1
  Sr  Sr1  1  0.08657000  0.78326500  0.14210600  1
  Sr  Sr2  1  0.83631300  0.49149300  0.40216800  1
  Sr  Sr3  1  0.31481300  0.93685600  0.00397700  1
  Sr  Sr4  1  0.72473600  0.30580000  0.00075700  1
  Sr  Sr5  1  0.91343000  0.21673500  0.64210600  1
  Sr  Sr6  1  0.93685600  0.68518700  0.75397700  1
  Sr  Sr7  1  0.16368700  0.50850700  0.90216800  1
  Sr  Sr8  1  0.49149300  0.16368700  0.15216800  1
  Sr  Sr9  1  0.06314400  0.31481300  0.25397700  1
  Sr  Sr10  1  0.27526400  0.69420000  0.50075700  1
  Sr  Sr11  1  0.30580000  0.27526400  0.75075700  1
  Sr  Sr12  1  0.50850700  0.83631300  0.65216800  1
  Sr  Sr13  1  0.68518700  0.06314400  0.50397700  1
  Sr  Sr14  1  0.78326500  0.91343000  0.89210600  1
  Sr  Sr15  1  0.69420000  0.72473600  0.25075700  1
  V  V16  1  0.43355700  0.29779000  0.61632600  1
  V  V17  1  0.82669400  0.77409100  0.01644500  1
  V  V18  1  0.17330600  0.22590900  0.51644500  1
  V  V19  1  0.23172200  0.39509400  0.02907500  1
  V  V20  1  0.29779000  0.56644300  0.36632600  1
  V  V21  1  0.22590900  0.82669400  0.26644500  1
  V  V22  1  0.69539700  0.96752800  0.37788300  1
  V  V23  1  0.76827800  0.60490600  0.52907500  1
  V  V24  1  0.96752800  0.30460300  0.12788300  1
  V  V25  1  0.77409100  0.17330600  0.76644500  1
  V  V26  1  0.03247200  0.69539700  0.62788300  1
  V  V27  1  0.30460300  0.03247200  0.87788300  1
  V  V28  1  0.70221000  0.43355700  0.86632600  1
  V  V29  1  0.56644300  0.70221000  0.11632600  1
  V  V30  1  0.60490600  0.23172200  0.27907500  1
  V  V31  1  0.39509400  0.76827800  0.77907500  1
  O  O32  1  0.69558700  0.95296200  0.99066600  1
  O  O33  1  0.79535400  0.78557500  0.34618700  1
  O  O34  1  0.04703800  0.69558700  0.24066600  1
  O  O35  1  0.31137600  0.57994800  0.99413200  1
  O  O36  1  0.24913700  0.58768100  0.79653800  1
  O  O37  1  0.39947100  0.86607800  0.09893700  1
  O  O38  1  0.13392200  0.39947100  0.34893700  1
  O  O39  1  0.37806900  0.68752100  0.30776300  1
  O  O40  1  0.88607500  0.44100100  0.17630100  1
  O  O41  1  0.27560400  0.18645100  0.65539900  1
  O  O42  1  0.20464600  0.21442500  0.84618700  1
  O  O43  1  0.58768100  0.75086300  0.54653800  1
  O  O44  1  0.11392500  0.55899900  0.67630100  1
  O  O45  1  0.52568100  0.54147500  0.89686400  1
  O  O46  1  0.11678600  0.14406500  0.15611800  1
  O  O47  1  0.53395300  0.09538000  0.33576000  1
  O  O48  1  0.63603200  0.11052100  0.71596700  1
  O  O49  1  0.90769800  0.73610600  0.49015400  1
  O  O50  1  0.55899900  0.88607500  0.42630100  1
  O  O51  1  0.36396800  0.88947900  0.21596700  1
  O  O52  1  0.44100100  0.11392500  0.92630100  1
  O  O53  1  0.68862400  0.42005200  0.49413200  1
  O  O54  1  0.47431900  0.45852500  0.39686400  1
  O  O55  1  0.62193100  0.31247900  0.80776300  1
  O  O56  1  0.98449800  0.13911900  0.54827700  1
  O  O57  1  0.73610600  0.09230200  0.24015400  1
  O  O58  1  0.85593500  0.11678600  0.40611800  1
  O  O59  1  0.86607800  0.60052900  0.84893700  1
  O  O60  1  0.78557500  0.20464600  0.09618700  1
  O  O61  1  0.21442500  0.79535400  0.59618700  1
  O  O62  1  0.09230200  0.26389400  0.99015400  1
  O  O63  1  0.54147500  0.47431900  0.64686400  1
  O  O64  1  0.30441300  0.04703800  0.49066600  1
  O  O65  1  0.18645100  0.72439600  0.40539900  1
  O  O66  1  0.88321400  0.85593500  0.65611800  1
  O  O67  1  0.14406500  0.88321400  0.90611800  1
  O  O68  1  0.88947900  0.63603200  0.96596700  1
  O  O69  1  0.72439600  0.81354900  0.15539900  1
  O  O70  1  0.13911900  0.01550200  0.29827700  1
  O  O71  1  0.31247900  0.37806900  0.55776300  1
  O  O72  1  0.60052900  0.13392200  0.59893700  1
  O  O73  1  0.75086300  0.41231900  0.29653800  1
  O  O74  1  0.45852500  0.52568100  0.14686400  1
  O  O75  1  0.42005200  0.31137600  0.24413200  1
  O  O76  1  0.41231900  0.24913700  0.04653800  1
  O  O77  1  0.81354900  0.27560400  0.90539900  1
  O  O78  1  0.90462000  0.53395300  0.58576000  1
  O  O79  1  0.57994800  0.68862400  0.74413200  1
  O  O80  1  0.11052100  0.36396800  0.46596700  1
  O  O81  1  0.01550200  0.86088100  0.04827700  1
  O  O82  1  0.86088100  0.98449800  0.79827700  1
  O  O83  1  0.46604700  0.90462000  0.83576000  1
  O  O84  1  0.68752100  0.62193100  0.05776300  1
  O  O85  1  0.95296200  0.30441300  0.74066600  1
  O  O86  1  0.09538000  0.46604700  0.08576000  1
  O  O87  1  0.26389400  0.90769800  0.74015400  1
