# generated using pymatgen
data_NaSm2Se3
_symmetry_space_group_name_H-M   'P 1'
_cell_length_a   7.28727585
_cell_length_b   7.28727585
_cell_length_c   7.28727585
_cell_angle_alpha   146.75337891
_cell_angle_beta   132.16720674
_cell_angle_gamma   59.49490583
_symmetry_Int_Tables_number   1
_chemical_formula_structural   NaSm2Se3
_chemical_formula_sum   'Na1 Sm2 Se3'
_cell_volume   155.86831379
_cell_formula_units_Z   1
loop_
 _symmetry_equiv_pos_site_id
 _symmetry_equiv_pos_as_xyz
  1  'x, y, z'
loop_
 _atom_site_type_symbol
 _atom_site_label
 _atom_site_symmetry_multiplicity
 _atom_site_fract_x
 _atom_site_fract_y
 _atom_site_fract_z
 _atom_site_occupancy
  Na  Na0  1  0.00000000  0.00000000  0.00000000  1
  Sm  Sm1  1  0.66371700  0.66371700  0.00000000  1
  Sm  Sm2  1  0.33628300  0.33628300  0.00000000  1
  Se  Se3  1  0.50000000  0.00000000  0.50000000  1
  Se  Se4  1  0.16850800  0.66850800  0.50000000  1
  Se  Se5  1  0.83149200  0.33149200  0.50000000  1
