# generated using pymatgen
data_Fe3Ag7(P2O7)4
_symmetry_space_group_name_H-M   'P 1'
_cell_length_a   8.56448303
_cell_length_b   9.68480577
_cell_length_c   28.47829095
_cell_angle_alpha   93.22115075
_cell_angle_beta   90.00000000
_cell_angle_gamma   90.00000000
_symmetry_Int_Tables_number   1
_chemical_formula_structural   Fe3Ag7(P2O7)4
_chemical_formula_sum   'Fe12 Ag28 P32 O112'
_cell_volume   2358.40997038
_cell_formula_units_Z   4
loop_
 _symmetry_equiv_pos_site_id
 _symmetry_equiv_pos_as_xyz
  1  'x, y, z'
loop_
 _atom_site_type_symbol
 _atom_site_label
 _atom_site_symmetry_multiplicity
 _atom_site_fract_x
 _atom_site_fract_y
 _atom_site_fract_z
 _atom_site_occupancy
  Fe  Fe0  1  0.82603981  0.75162613  0.24859420  1
  Fe  Fe1  1  0.32603981  0.24837387  0.25140580  1
  Fe  Fe2  1  0.17396019  0.24837387  0.75140580  1
  Fe  Fe3  1  0.67396019  0.75162613  0.74859420  1
  Fe  Fe4  1  0.22143931  0.56734160  0.43575334  1
  Fe  Fe5  1  0.72143931  0.43265840  0.06424666  1
  Fe  Fe6  1  0.77856069  0.43265840  0.56424666  1
  Fe  Fe7  1  0.27856069  0.56734160  0.93575334  1
  Fe  Fe8  1  0.72120753  0.06738240  0.43662335  1
  Fe  Fe9  1  0.22120753  0.93261760  0.06337665  1
  Fe  Fe10  1  0.27879247  0.93261760  0.56337665  1
  Fe  Fe11  1  0.77879247  0.06738240  0.93662335  1
  Ag  Ag12  1  0.63641437  0.50674325  0.44555474  1
  Ag  Ag13  1  0.13641437  0.49325675  0.05444526  1
  Ag  Ag14  1  0.36358563  0.49325675  0.55444526  1
  Ag  Ag15  1  0.86358563  0.50674325  0.94555474  1
  Ag  Ag16  1  0.85383725  0.00051838  0.56135975  1
  Ag  Ag17  1  0.35383725  0.99948162  0.93864025  1
  Ag  Ag18  1  0.14616275  0.99948162  0.43864025  1
  Ag  Ag19  1  0.64616275  0.00051838  0.06135975  1
  Ag  Ag20  1  0.57029394  0.77109836  0.35750308  1
  Ag  Ag21  1  0.07029394  0.22890164  0.14249692  1
  Ag  Ag22  1  0.42970606  0.22890164  0.64249692  1
  Ag  Ag23  1  0.92970606  0.77109836  0.85750308  1
  Ag  Ag24  1  0.59613618  0.75968471  0.14597973  1
  Ag  Ag25  1  0.09613618  0.24031529  0.35402027  1
  Ag  Ag26  1  0.40386382  0.24031529  0.85402027  1
  Ag  Ag27  1  0.90386382  0.75968471  0.64597973  1
  Ag  Ag28  1  0.68785173  0.21464317  0.18871700  1
  Ag  Ag29  1  0.18785173  0.78535683  0.31128300  1
  Ag  Ag30  1  0.31214827  0.78535683  0.81128300  1
  Ag  Ag31  1  0.81214827  0.21464317  0.68871700  1
  Ag  Ag32  1  0.65418802  0.25151846  0.32830828  1
  Ag  Ag33  1  0.15418802  0.74848154  0.17169172  1
  Ag  Ag34  1  0.34581198  0.74848154  0.67169172  1
  Ag  Ag35  1  0.84581198  0.25151846  0.82830828  1
  Ag  Ag36  1  0.85764569  0.54063490  0.35285010  1
  Ag  Ag37  1  0.35764569  0.45936510  0.14714990  1
  Ag  Ag38  1  0.14235431  0.45936510  0.64714990  1
  Ag  Ag39  1  0.64235431  0.54063490  0.85285010  1
  P  P40  1  0.00951207  0.45395040  0.25550030  1
  P  P41  1  0.50951207  0.54604960  0.24449970  1
  P  P42  1  0.99048793  0.54604960  0.74449970  1
  P  P43  1  0.49048793  0.45395040  0.75550030  1
  P  P44  1  0.00484632  0.04930661  0.24541125  1
  P  P45  1  0.50484632  0.95069339  0.25458875  1
  P  P46  1  0.99515368  0.95069339  0.75458875  1
  P  P47  1  0.49515368  0.04930661  0.74541125  1
  P  P48  1  0.88864810  0.52092170  0.16489197  1
  P  P49  1  0.38864810  0.47907830  0.33510803  1
  P  P50  1  0.11135190  0.47907830  0.83510803  1
  P  P51  1  0.61135190  0.52092170  0.66489197  1
  P  P52  1  0.88233952  0.97096784  0.33445582  1
  P  P53  1  0.38233952  0.02903216  0.16554418  1
  P  P54  1  0.11766048  0.02903216  0.66554418  1
  P  P55  1  0.61766048  0.97096784  0.83445582  1
  P  P56  1  0.40853661  0.25705933  0.44200179  1
  P  P57  1  0.90853661  0.74294067  0.05799821  1
  P  P58  1  0.59146339  0.74294067  0.55799821  1
  P  P59  1  0.09146339  0.25705933  0.94200179  1
  P  P60  1  0.08810447  0.23968734  0.55540685  1
  P  P61  1  0.58810447  0.76031266  0.94459315  1
  P  P62  1  0.91189553  0.76031266  0.44459315  1
  P  P63  1  0.41189553  0.23968734  0.05540685  1
  P  P64  1  0.46097072  0.83191658  0.46711949  1
  P  P65  1  0.96097072  0.16808342  0.03288051  1
  P  P66  1  0.53902928  0.16808342  0.53288051  1
  P  P67  1  0.03902928  0.83191658  0.96711949  1
  P  P68  1  0.95921457  0.33306076  0.46544918  1
  P  P69  1  0.45921457  0.66693924  0.03455082  1
  P  P70  1  0.04078543  0.66693924  0.53455082  1
  P  P71  1  0.54078543  0.33306076  0.96544918  1
  O  O72  1  0.94082607  0.38028392  0.29709122  1
  O  O73  1  0.44082607  0.61971608  0.20290878  1
  O  O74  1  0.05917393  0.61971608  0.70290878  1
  O  O75  1  0.55917393  0.38028392  0.79709122  1
  O  O76  1  0.93859024  0.12563487  0.20494834  1
  O  O77  1  0.43859024  0.87436513  0.29505166  1
  O  O78  1  0.06140976  0.87436513  0.79505166  1
  O  O79  1  0.56140976  0.12563487  0.70494834  1
  O  O80  1  0.16591882  0.39393500  0.23800038  1
  O  O81  1  0.66591882  0.60606500  0.26199962  1
  O  O82  1  0.83408118  0.60606500  0.76199962  1
  O  O83  1  0.33408118  0.39393500  0.73800038  1
  O  O84  1  0.00958541  0.88922208  0.23636306  1
  O  O85  1  0.50958541  0.11077792  0.26363694  1
  O  O86  1  0.99041459  0.11077792  0.76363694  1
  O  O87  1  0.49041459  0.88922208  0.73636306  1
  O  O88  1  0.01097208  0.61363118  0.26396895  1
  O  O89  1  0.51097208  0.38636882  0.23603105  1
  O  O90  1  0.98902792  0.38636882  0.73603105  1
  O  O91  1  0.48902792  0.61363118  0.76396895  1
  O  O92  1  0.16053444  0.10782532  0.26500347  1
  O  O93  1  0.66053444  0.89217468  0.23499653  1
  O  O94  1  0.83946556  0.89217468  0.73499653  1
  O  O95  1  0.33946556  0.10782532  0.76500347  1
  O  O96  1  0.88823027  0.42745040  0.21101293  1
  O  O97  1  0.38823027  0.57254960  0.28898707  1
  O  O98  1  0.11176973  0.57254960  0.78898707  1
  O  O99  1  0.61176973  0.42745040  0.71101293  1
  O  O100  1  0.88028480  0.06943351  0.28959122  1
  O  O101  1  0.38028480  0.93056649  0.21040878  1
  O  O102  1  0.11971520  0.93056649  0.71040878  1
  O  O103  1  0.61971520  0.06943351  0.78959122  1
  O  O104  1  0.84502923  0.67087103  0.18213053  1
  O  O105  1  0.34502923  0.32912897  0.31786947  1
  O  O106  1  0.15497077  0.32912897  0.81786947  1
  O  O107  1  0.65497077  0.67087103  0.68213053  1
  O  O108  1  0.83069885  0.82384828  0.31636092  1
  O  O109  1  0.33069885  0.17615172  0.18363908  1
  O  O110  1  0.16930115  0.17615172  0.68363908  1
  O  O111  1  0.66930115  0.82384828  0.81636092  1
  O  O112  1  0.05208310  0.51440677  0.14350594  1
  O  O113  1  0.55208310  0.48559323  0.35649406  1
  O  O114  1  0.94791690  0.48559323  0.85649406  1
  O  O115  1  0.44791690  0.51440677  0.64350594  1
  O  O116  1  0.04662700  0.97309823  0.35475391  1
  O  O117  1  0.54662700  0.02690177  0.14524609  1
  O  O118  1  0.95337300  0.02690177  0.64524609  1
  O  O119  1  0.45337300  0.97309823  0.85475391  1
  O  O120  1  0.75792036  0.45366217  0.13447159  1
  O  O121  1  0.25792036  0.54633783  0.36552841  1
  O  O122  1  0.24207964  0.54633783  0.86552841  1
  O  O123  1  0.74207964  0.45366217  0.63447159  1
  O  O124  1  0.75415186  0.03917989  0.36608403  1
  O  O125  1  0.25415186  0.96082011  0.13391597  1
  O  O126  1  0.24584814  0.96082011  0.63391597  1
  O  O127  1  0.74584814  0.03917989  0.86608403  1
  O  O128  1  0.57644568  0.22877820  0.42381676  1
  O  O129  1  0.07644568  0.77122180  0.07618324  1
  O  O130  1  0.42355432  0.77122180  0.57618324  1
  O  O131  1  0.92355432  0.22877820  0.92381676  1
  O  O132  1  0.92283709  0.27126215  0.57447068  1
  O  O133  1  0.42283709  0.72873785  0.92552932  1
  O  O134  1  0.07716291  0.72873785  0.42552932  1
  O  O135  1  0.57716291  0.27126215  0.07447068  1
  O  O136  1  0.37734021  0.41428939  0.44954529  1
  O  O137  1  0.87734021  0.58571061  0.05045471  1
  O  O138  1  0.62265979  0.58571061  0.55045471  1
  O  O139  1  0.12265979  0.41428939  0.94954529  1
  O  O140  1  0.11977898  0.08353859  0.54890977  1
  O  O141  1  0.61977898  0.91646141  0.95109023  1
  O  O142  1  0.88022102  0.91646141  0.45109023  1
  O  O143  1  0.38022102  0.08353859  0.04890977  1
  O  O144  1  0.28215154  0.18267297  0.41373380  1
  O  O145  1  0.78215154  0.81732703  0.08626620  1
  O  O146  1  0.71784846  0.81732703  0.58626620  1
  O  O147  1  0.21784846  0.18267297  0.91373380  1
  O  O148  1  0.21540368  0.31467476  0.58464031  1
  O  O149  1  0.71540368  0.68532524  0.91535969  1
  O  O150  1  0.78459632  0.68532524  0.41535969  1
  O  O151  1  0.28459632  0.31467476  0.08464031  1
  O  O152  1  0.59371100  0.79962864  0.50499883  1
  O  O153  1  0.09371100  0.20037136  0.99500117  1
  O  O154  1  0.40628900  0.20037136  0.49500117  1
  O  O155  1  0.90628900  0.79962864  0.00499883  1
  O  O156  1  0.09357403  0.29677216  0.50280772  1
  O  O157  1  0.59357403  0.70322784  0.99719228  1
  O  O158  1  0.90642597  0.70322784  0.49719228  1
  O  O159  1  0.40642597  0.29677216  0.00280772  1
  O  O160  1  0.32335956  0.90122970  0.49409618  1
  O  O161  1  0.82335956  0.09877030  0.00590382  1
  O  O162  1  0.67664044  0.09877030  0.50590382  1
  O  O163  1  0.17664044  0.90122970  0.99409618  1
  O  O164  1  0.82485941  0.40309169  0.49389589  1
  O  O165  1  0.32485941  0.59690831  0.00610411  1
  O  O166  1  0.17514059  0.59690831  0.50610411  1
  O  O167  1  0.67514059  0.40309169  0.99389589  1
  O  O168  1  0.41201105  0.69556936  0.44113483  1
  O  O169  1  0.91201105  0.30443064  0.05886517  1
  O  O170  1  0.58798895  0.30443064  0.55886517  1
  O  O171  1  0.08798895  0.69556936  0.94113483  1
  O  O172  1  0.90759596  0.19850780  0.43927225  1
  O  O173  1  0.40759596  0.80149220  0.06072775  1
  O  O174  1  0.09240404  0.80149220  0.56072775  1
  O  O175  1  0.59240404  0.19850780  0.93927225  1
  O  O176  1  0.54017528  0.92677218  0.43280649  1
  O  O177  1  0.04017528  0.07322782  0.06719351  1
  O  O178  1  0.45982472  0.07322782  0.56719351  1
  O  O179  1  0.95982472  0.92677218  0.93280649  1
  O  O180  1  0.03799749  0.42899052  0.43128513  1
  O  O181  1  0.53799749  0.57100948  0.06871487  1
  O  O182  1  0.96200251  0.57100948  0.56871487  1
  O  O183  1  0.46200251  0.42899052  0.93128513  1
