# generated using pymatgen
data_Cu4Se3O10
_symmetry_space_group_name_H-M   'P 1'
_cell_length_a   13.68280600
_cell_length_b   16.21499971
_cell_length_c   18.01873061
_cell_angle_alpha   90.87956012
_cell_angle_beta   90.00000000
_cell_angle_gamma   90.00000000
_symmetry_Int_Tables_number   1
_chemical_formula_structural   Cu4Se3O10
_chemical_formula_sum   'Cu64 Se48 O160'
_cell_volume   3997.28516740
_cell_formula_units_Z   16
loop_
 _symmetry_equiv_pos_site_id
 _symmetry_equiv_pos_as_xyz
  1  'x, y, z'
loop_
 _atom_site_type_symbol
 _atom_site_label
 _atom_site_symmetry_multiplicity
 _atom_site_fract_x
 _atom_site_fract_y
 _atom_site_fract_z
 _atom_site_occupancy
  Cu  Cu0  1  0.70623400  0.25369900  0.87510000  1
  Cu  Cu1  1  0.20623400  0.24630100  0.12490000  1
  Cu  Cu2  1  0.29376600  0.74630100  0.12490000  1
  Cu  Cu3  1  0.79376600  0.75369900  0.87510000  1
  Cu  Cu4  1  0.91572700  0.25660000  0.87134500  1
  Cu  Cu5  1  0.41572700  0.24340000  0.12865500  1
  Cu  Cu6  1  0.08427300  0.74340000  0.12865500  1
  Cu  Cu7  1  0.58427300  0.75660000  0.87134500  1
  Cu  Cu8  1  0.14208600  0.25364400  0.88552000  1
  Cu  Cu9  1  0.64208600  0.24635600  0.11448000  1
  Cu  Cu10  1  0.85791400  0.74635600  0.11448000  1
  Cu  Cu11  1  0.35791400  0.75364400  0.88552000  1
  Cu  Cu12  1  0.47970500  0.25922300  0.86555100  1
  Cu  Cu13  1  0.97970500  0.24077700  0.13444900  1
  Cu  Cu14  1  0.52029500  0.74077700  0.13444900  1
  Cu  Cu15  1  0.02029500  0.75922300  0.86555100  1
  Cu  Cu16  1  0.66041000  0.25981000  0.62491300  1
  Cu  Cu17  1  0.16041000  0.24019000  0.37508700  1
  Cu  Cu18  1  0.33959000  0.74019000  0.37508700  1
  Cu  Cu19  1  0.83959000  0.75981000  0.62491300  1
  Cu  Cu20  1  0.00041100  0.26229600  0.61230200  1
  Cu  Cu21  1  0.50041100  0.23770400  0.38769800  1
  Cu  Cu22  1  0.99958900  0.73770400  0.38769800  1
  Cu  Cu23  1  0.49958900  0.76229600  0.61230200  1
  Cu  Cu24  1  0.23053500  0.25159500  0.62847100  1
  Cu  Cu25  1  0.73053500  0.24840500  0.37152900  1
  Cu  Cu26  1  0.76946500  0.74840500  0.37152900  1
  Cu  Cu27  1  0.26946500  0.75159500  0.62847100  1
  Cu  Cu28  1  0.43737300  0.25531500  0.62168900  1
  Cu  Cu29  1  0.93737300  0.24468500  0.37831100  1
  Cu  Cu30  1  0.56262700  0.74468500  0.37831100  1
  Cu  Cu31  1  0.06262700  0.75531500  0.62168900  1
  Cu  Cu32  1  0.82128800  0.43372100  0.88676100  1
  Cu  Cu33  1  0.32128800  0.06627900  0.11323900  1
  Cu  Cu34  1  0.17871200  0.56627900  0.11323900  1
  Cu  Cu35  1  0.67871200  0.93372100  0.88676100  1
  Cu  Cu36  1  0.34184000  0.34593500  0.77190400  1
  Cu  Cu37  1  0.84184000  0.15406500  0.22809600  1
  Cu  Cu38  1  0.65816000  0.65406500  0.22809600  1
  Cu  Cu39  1  0.15816000  0.84593500  0.77190400  1
  Cu  Cu40  1  0.32967300  0.42999900  0.61618500  1
  Cu  Cu41  1  0.82967300  0.07000100  0.38381500  1
  Cu  Cu42  1  0.67032700  0.57000100  0.38381500  1
  Cu  Cu43  1  0.17032700  0.92999900  0.61618500  1
  Cu  Cu44  1  0.85524000  0.34807300  0.51504100  1
  Cu  Cu45  1  0.35524000  0.15192700  0.48495900  1
  Cu  Cu46  1  0.14476000  0.65192700  0.48495900  1
  Cu  Cu47  1  0.64476000  0.84807300  0.51504100  1
  Cu  Cu48  1  0.82939000  0.42686100  0.36199500  1
  Cu  Cu49  1  0.32939000  0.07313900  0.63800500  1
  Cu  Cu50  1  0.17061000  0.57313900  0.63800500  1
  Cu  Cu51  1  0.67061000  0.92686100  0.36199500  1
  Cu  Cu52  1  0.29962000  0.32246500  0.27706500  1
  Cu  Cu53  1  0.79962000  0.17753500  0.72293500  1
  Cu  Cu54  1  0.70038000  0.67753500  0.72293500  1
  Cu  Cu55  1  0.20038000  0.82246500  0.27706500  1
  Cu  Cu56  1  0.32879200  0.42490100  0.14499400  1
  Cu  Cu57  1  0.82879200  0.07509900  0.85500600  1
  Cu  Cu58  1  0.67120800  0.57509900  0.85500600  1
  Cu  Cu59  1  0.17120800  0.92490100  0.14499400  1
  Cu  Cu60  1  0.78769400  0.33393400  0.02256700  1
  Cu  Cu61  1  0.28769400  0.16606600  0.97743300  1
  Cu  Cu62  1  0.21230600  0.66606600  0.97743300  1
  Cu  Cu63  1  0.71230600  0.83393400  0.02256700  1
  Se  Se64  1  0.59446700  0.41859100  0.94273100  1
  Se  Se65  1  0.09446700  0.08140900  0.05726900  1
  Se  Se66  1  0.40553300  0.58140900  0.05726900  1
  Se  Se67  1  0.90553300  0.91859100  0.94273100  1
  Se  Se68  1  0.01271000  0.38781300  0.99050500  1
  Se  Se69  1  0.51271000  0.11218700  0.00949500  1
  Se  Se70  1  0.98729000  0.61218700  0.00949500  1
  Se  Se71  1  0.48729000  0.88781300  0.99050500  1
  Se  Se72  1  0.29707200  0.38142700  0.95337900  1
  Se  Se73  1  0.79707200  0.11857300  0.04662100  1
  Se  Se74  1  0.70292800  0.61857300  0.04662100  1
  Se  Se75  1  0.20292800  0.88142700  0.95337900  1
  Se  Se76  1  0.54073000  0.41917800  0.69922300  1
  Se  Se77  1  0.04073000  0.08082200  0.30077700  1
  Se  Se78  1  0.45927000  0.58082200  0.30077700  1
  Se  Se79  1  0.95927000  0.91917800  0.69922300  1
  Se  Se80  1  0.81709300  0.38882200  0.69350300  1
  Se  Se81  1  0.31709300  0.11117800  0.30649700  1
  Se  Se82  1  0.18290700  0.61117800  0.30649700  1
  Se  Se83  1  0.68290700  0.88882200  0.69350300  1
  Se  Se84  1  0.12069600  0.39768800  0.72867600  1
  Se  Se85  1  0.62069600  0.10231200  0.27132400  1
  Se  Se86  1  0.87930400  0.60231200  0.27132400  1
  Se  Se87  1  0.37930400  0.89768800  0.72867600  1
  Se  Se88  1  0.62989800  0.39304000  0.47585500  1
  Se  Se89  1  0.12989800  0.10696000  0.52414500  1
  Se  Se90  1  0.37010200  0.60696000  0.52414500  1
  Se  Se91  1  0.87010200  0.89304000  0.47585500  1
  Se  Se92  1  0.04595300  0.41762200  0.42739200  1
  Se  Se93  1  0.54595300  0.08237800  0.57260800  1
  Se  Se94  1  0.95404700  0.58237800  0.57260800  1
  Se  Se95  1  0.45404700  0.91762200  0.42739200  1
  Se  Se96  1  0.34276800  0.36699500  0.45093900  1
  Se  Se97  1  0.84276800  0.13300500  0.54906100  1
  Se  Se98  1  0.65723200  0.63300500  0.54906100  1
  Se  Se99  1  0.15723200  0.86699500  0.45093900  1
  Se  Se100  1  0.52491400  0.37275700  0.24290500  1
  Se  Se101  1  0.02491400  0.12724300  0.75709500  1
  Se  Se102  1  0.47508600  0.62724300  0.75709500  1
  Se  Se103  1  0.97508600  0.87275700  0.24290500  1
  Se  Se104  1  0.81991200  0.37040200  0.19833000  1
  Se  Se105  1  0.31991200  0.12959800  0.80167000  1
  Se  Se106  1  0.18008800  0.62959800  0.80167000  1
  Se  Se107  1  0.68008800  0.87040200  0.19833000  1
  Se  Se108  1  0.10124200  0.40781300  0.20290600  1
  Se  Se109  1  0.60124200  0.09218700  0.79709400  1
  Se  Se110  1  0.89875800  0.59218700  0.79709400  1
  Se  Se111  1  0.39875800  0.90781300  0.20290600  1
  O  O112  1  0.80759200  0.32093700  0.91684900  1
  O  O113  1  0.30759200  0.17906300  0.08315100  1
  O  O114  1  0.19240800  0.67906300  0.08315100  1
  O  O115  1  0.69240800  0.82093700  0.91684900  1
  O  O116  1  0.33427200  0.32358700  0.66509800  1
  O  O117  1  0.83427200  0.17641300  0.33490200  1
  O  O118  1  0.66572800  0.67641300  0.33490200  1
  O  O119  1  0.16572800  0.82358700  0.66509800  1
  O  O120  1  0.83575800  0.32044100  0.41024000  1
  O  O121  1  0.33575800  0.17955900  0.58976000  1
  O  O122  1  0.16424200  0.67955900  0.58976000  1
  O  O123  1  0.66424200  0.82044100  0.41024000  1
  O  O124  1  0.31171800  0.31009000  0.17110500  1
  O  O125  1  0.81171800  0.18991000  0.82889500  1
  O  O126  1  0.68828200  0.68990900  0.82889500  1
  O  O127  1  0.18828200  0.81009100  0.17110500  1
  O  O128  1  0.67051300  0.41363700  0.01627000  1
  O  O129  1  0.17051300  0.08636300  0.98373000  1
  O  O130  1  0.32948700  0.58636300  0.98373000  1
  O  O131  1  0.82948700  0.91363700  0.01627000  1
  O  O132  1  0.59030400  0.31255300  0.91713700  1
  O  O133  1  0.09030400  0.18744700  0.08286300  1
  O  O134  1  0.40969600  0.68744700  0.08286300  1
  O  O135  1  0.90969600  0.81255300  0.91713700  1
  O  O136  1  0.67423700  0.45300400  0.87225400  1
  O  O137  1  0.17423700  0.04699600  0.12774600  1
  O  O138  1  0.32576300  0.54699600  0.12774600  1
  O  O139  1  0.82576300  0.95300400  0.87225400  1
  O  O140  1  0.02330400  0.30938900  0.92095100  1
  O  O141  1  0.52330400  0.19061100  0.07904900  1
  O  O142  1  0.97669600  0.69061100  0.07904900  1
  O  O143  1  0.47669600  0.80938900  0.92095100  1
  O  O144  1  0.94382100  0.45663000  0.94204300  1
  O  O145  1  0.44382100  0.04337000  0.05795700  1
  O  O146  1  0.05617900  0.54337000  0.05795700  1
  O  O147  1  0.55617900  0.95663000  0.94204300  1
  O  O148  1  0.92925800  0.34270800  0.05029700  1
  O  O149  1  0.42925800  0.15729200  0.94970300  1
  O  O150  1  0.07074200  0.65729200  0.94970300  1
  O  O151  1  0.57074200  0.84270800  0.05029700  1
  O  O152  1  0.22202600  0.29474600  0.97001800  1
  O  O153  1  0.72202600  0.20525400  0.02998200  1
  O  O154  1  0.77797400  0.70525400  0.02998200  1
  O  O155  1  0.27797400  0.79474600  0.97001800  1
  O  O156  1  0.37089700  0.38264200  0.02820900  1
  O  O157  1  0.87089700  0.11735800  0.97179100  1
  O  O158  1  0.62910300  0.61735800  0.97179100  1
  O  O159  1  0.12910300  0.88264200  0.02820900  1
  O  O160  1  0.37407800  0.34252400  0.88208600  1
  O  O161  1  0.87407800  0.15747600  0.11791400  1
  O  O162  1  0.62592200  0.65747600  0.11791400  1
  O  O163  1  0.12592200  0.84252400  0.88208600  1
  O  O164  1  0.45389400  0.47711600  0.65490300  1
  O  O165  1  0.95389400  0.02288400  0.34509700  1
  O  O166  1  0.54610600  0.52288400  0.34509700  1
  O  O167  1  0.04610600  0.97711600  0.65490300  1
  O  O168  1  0.54455800  0.33278900  0.63580700  1
  O  O169  1  0.04455800  0.16721100  0.36419300  1
  O  O170  1  0.45544200  0.66721100  0.36419300  1
  O  O171  1  0.95544200  0.83278900  0.63580700  1
  O  O172  1  0.48124300  0.37593300  0.77177700  1
  O  O173  1  0.98124300  0.12406700  0.22822300  1
  O  O174  1  0.51875700  0.62406700  0.22822300  1
  O  O175  1  0.01875700  0.87593300  0.77177700  1
  O  O176  1  0.73587800  0.30679900  0.70906500  1
  O  O177  1  0.23587800  0.19320100  0.29093500  1
  O  O178  1  0.26412200  0.69320100  0.29093500  1
  O  O179  1  0.76412200  0.80679900  0.70906500  1
  O  O180  1  0.88446500  0.38883300  0.77185000  1
  O  O181  1  0.38446500  0.11116700  0.22815000  1
  O  O182  1  0.11553500  0.61116700  0.22815000  1
  O  O183  1  0.61553500  0.88883300  0.77185000  1
  O  O184  1  0.89595600  0.34713800  0.62391300  1
  O  O185  1  0.39595600  0.15286200  0.37608700  1
  O  O186  1  0.10404400  0.65286200  0.37608700  1
  O  O187  1  0.60404400  0.84713800  0.62391300  1
  O  O188  1  0.19965900  0.35396300  0.79248900  1
  O  O189  1  0.69965900  0.14603700  0.20751100  1
  O  O190  1  0.80034100  0.64603700  0.20751100  1
  O  O191  1  0.30034100  0.85396300  0.79248900  1
  O  O192  1  0.11426100  0.31581400  0.66287600  1
  O  O193  1  0.61426100  0.18418600  0.33712400  1
  O  O194  1  0.88573900  0.68418600  0.33712400  1
  O  O195  1  0.38573900  0.81581400  0.66287600  1
  O  O196  1  0.19997800  0.46498600  0.68517300  1
  O  O197  1  0.69997800  0.03501400  0.31482700  1
  O  O198  1  0.80002200  0.53501400  0.31482700  1
  O  O199  1  0.30002200  0.96498600  0.68517300  1
  O  O200  1  0.71304300  0.35314400  0.53825000  1
  O  O201  1  0.21304300  0.14685600  0.46175000  1
  O  O202  1  0.28695700  0.64685600  0.46175000  1
  O  O203  1  0.78695700  0.85314400  0.53825000  1
  O  O204  1  0.61892700  0.31009400  0.41214600  1
  O  O205  1  0.11892700  0.18990600  0.58785400  1
  O  O206  1  0.38107300  0.68990600  0.58785400  1
  O  O207  1  0.88107300  0.81009400  0.41214600  1
  O  O208  1  0.70465800  0.46068800  0.42804100  1
  O  O209  1  0.20465800  0.03931200  0.57195900  1
  O  O210  1  0.29534200  0.53931200  0.57195900  1
  O  O211  1  0.79534200  0.96068800  0.42804100  1
  O  O212  1  0.97027400  0.44707800  0.35631800  1
  O  O213  1  0.47027400  0.05292200  0.64368200  1
  O  O214  1  0.02972600  0.55292200  0.64368200  1
  O  O215  1  0.52972600  0.94707800  0.35631800  1
  O  O216  1  0.05122100  0.30846600  0.41125700  1
  O  O217  1  0.55122100  0.19153400  0.58874300  1
  O  O218  1  0.94877900  0.69153400  0.58874300  1
  O  O219  1  0.44877900  0.80846600  0.41125700  1
  O  O220  1  0.97281000  0.41444300  0.50433400  1
  O  O221  1  0.47281000  0.08555700  0.49566600  1
  O  O222  1  0.02719000  0.58555700  0.49566600  1
  O  O223  1  0.52719000  0.91444300  0.50433400  1
  O  O224  1  0.26913700  0.36692600  0.52717900  1
  O  O225  1  0.76913700  0.13307400  0.47282100  1
  O  O226  1  0.73086300  0.63307400  0.47282100  1
  O  O227  1  0.23086300  0.86692600  0.52717900  1
  O  O228  1  0.42298300  0.28647900  0.47051700  1
  O  O229  1  0.92298300  0.21352100  0.52948300  1
  O  O230  1  0.57701700  0.71352100  0.52948300  1
  O  O231  1  0.07701700  0.78647900  0.47051700  1
  O  O232  1  0.26501200  0.32221200  0.38431100  1
  O  O233  1  0.76501200  0.17778800  0.61568900  1
  O  O234  1  0.73498800  0.67778800  0.61568900  1
  O  O235  1  0.23498800  0.82221200  0.38431100  1
  O  O236  1  0.45343200  0.44237800  0.19782400  1
  O  O237  1  0.95343200  0.05762200  0.80217600  1
  O  O238  1  0.54656800  0.55762200  0.80217600  1
  O  O239  1  0.04656800  0.94237800  0.19782400  1
  O  O240  1  0.53287800  0.29275100  0.17470400  1
  O  O241  1  0.03287800  0.20724900  0.82529600  1
  O  O242  1  0.46712200  0.70724900  0.82529600  1
  O  O243  1  0.96712200  0.79275100  0.17470400  1
  O  O244  1  0.44151100  0.32611400  0.30237700  1
  O  O245  1  0.94151100  0.17388600  0.69762300  1
  O  O246  1  0.55848900  0.67388600  0.69762300  1
  O  O247  1  0.05848900  0.82611400  0.30237700  1
  O  O248  1  0.74496400  0.32847000  0.12773800  1
  O  O249  1  0.24496400  0.17153000  0.87226200  1
  O  O250  1  0.25503600  0.67153000  0.87226200  1
  O  O251  1  0.75503600  0.82847000  0.12773800  1
  O  O252  1  0.74787100  0.36234400  0.27424100  1
  O  O253  1  0.24787100  0.13765600  0.72575900  1
  O  O254  1  0.25212900  0.63765600  0.72575900  1
  O  O255  1  0.75212900  0.86234400  0.27424100  1
  O  O256  1  0.90225000  0.29049600  0.21388200  1
  O  O257  1  0.40225000  0.20950400  0.78611800  1
  O  O258  1  0.09775000  0.70950400  0.78611800  1
  O  O259  1  0.59775000  0.79049600  0.21388200  1
  O  O260  1  0.18174800  0.44754200  0.13608300  1
  O  O261  1  0.68174800  0.05245800  0.86391700  1
  O  O262  1  0.81825200  0.55245800  0.86391700  1
  O  O263  1  0.31825200  0.94754200  0.13608300  1
  O  O264  1  0.17633900  0.39499500  0.27603800  1
  O  O265  1  0.67633900  0.10500500  0.72396200  1
  O  O266  1  0.82366100  0.60500500  0.72396200  1
  O  O267  1  0.32366100  0.89499500  0.27603800  1
  O  O268  1  0.09704600  0.30648700  0.16515300  1
  O  O269  1  0.59704600  0.19351300  0.83484700  1
  O  O270  1  0.90295400  0.69351300  0.83484700  1
  O  O271  1  0.40295400  0.80648700  0.16515300  1
