# generated using pymatgen
data_FeCo3S8
_symmetry_space_group_name_H-M   'P 1'
_cell_length_a   5.48740813
_cell_length_b   5.48740813
_cell_length_c   5.48740803
_cell_angle_alpha   89.99602774
_cell_angle_beta   89.99602774
_cell_angle_gamma   89.99602788
_symmetry_Int_Tables_number   1
_chemical_formula_structural   FeCo3S8
_chemical_formula_sum   'Fe1 Co3 S8'
_cell_volume   165.23489786
_cell_formula_units_Z   1
loop_
 _symmetry_equiv_pos_site_id
 _symmetry_equiv_pos_as_xyz
  1  'x, y, z'
loop_
 _atom_site_type_symbol
 _atom_site_label
 _atom_site_symmetry_multiplicity
 _atom_site_fract_x
 _atom_site_fract_y
 _atom_site_fract_z
 _atom_site_occupancy
  Fe  Fe0  1  0.00000000  0.00000000  0.00000000  1
  Co  Co1  1  0.50000000  0.50000000  0.00000000  1
  Co  Co2  1  0.00000000  0.50000000  0.50000000  1
  Co  Co3  1  0.50000000  0.00000000  0.50000000  1
  S  S4  1  0.88832300  0.11226000  0.38161500  1
  S  S5  1  0.38161500  0.88832300  0.11226000  1
  S  S6  1  0.11226000  0.38161500  0.88832300  1
  S  S7  1  0.61077500  0.61077500  0.61077500  1
  S  S8  1  0.11167700  0.88774000  0.61838500  1
  S  S9  1  0.61838500  0.11167700  0.88774000  1
  S  S10  1  0.88774000  0.61838500  0.11167700  1
  S  S11  1  0.38922500  0.38922500  0.38922500  1
