# generated using pymatgen
data_Al2(MoO4)3
_symmetry_space_group_name_H-M   'P 1'
_cell_length_a   9.17901006
_cell_length_b   9.26421947
_cell_length_c   12.79893174
_cell_angle_alpha   90.00000000
_cell_angle_beta   90.00000000
_cell_angle_gamma   90.00000000
_symmetry_Int_Tables_number   1
_chemical_formula_structural   Al2(MoO4)3
_chemical_formula_sum   'Al8 Mo12 O48'
_cell_volume   1088.37461458
_cell_formula_units_Z   4
loop_
 _symmetry_equiv_pos_site_id
 _symmetry_equiv_pos_as_xyz
  1  'x, y, z'
loop_
 _atom_site_type_symbol
 _atom_site_label
 _atom_site_symmetry_multiplicity
 _atom_site_fract_x
 _atom_site_fract_y
 _atom_site_fract_z
 _atom_site_occupancy
  O  O0  1  0.85963105  0.30441633  0.16753161  1
  O  O1  1  0.85963105  0.19558374  0.83246819  1
  O  O2  1  0.64036932  0.80441640  0.33246868  1
  O  O3  1  0.64036932  0.69558381  0.66753190  1
  O  O4  1  0.14036920  0.69558381  0.83246819  1
  O  O5  1  0.14036920  0.80441640  0.16753161  1
  O  O6  1  0.35963093  0.19558374  0.66753190  1
  O  O7  1  0.35963093  0.30441633  0.33246868  1
  O  O8  1  0.81692900  0.06864021  0.02161872  1
  O  O9  1  0.81692900  0.43135986  0.97838108  1
  O  O10  1  0.68307138  0.56863920  0.47838079  1
  O  O11  1  0.68307138  0.93135993  0.52161901  1
  O  O12  1  0.18307125  0.93135993  0.97838108  1
  O  O13  1  0.18307125  0.56863920  0.02161872  1
  O  O14  1  0.31692887  0.43135986  0.52161901  1
  O  O15  1  0.31692887  0.06864021  0.47838079  1
  O  O16  1  0.41279810  0.65974309  0.90653304  1
  O  O17  1  0.58720215  0.15974301  0.90653304  1
  O  O18  1  0.91279822  0.84025713  0.40653353  1
  O  O19  1  0.91279822  0.65974309  0.59346705  1
  O  O20  1  0.08777564  0.08962578  0.14039918  1
  O  O21  1  0.08777564  0.41037429  0.85960062  1
  O  O22  1  0.41222448  0.58962586  0.35960111  1
  O  O23  1  0.41222448  0.91037328  0.64039947  1
  O  O24  1  0.91222461  0.91037328  0.85960062  1
  O  O25  1  0.91222461  0.58962586  0.14039918  1
  O  O26  1  0.58777577  0.41037429  0.64039947  1
  O  O27  1  0.58777577  0.08962578  0.35960111  1
  O  O28  1  0.36181432  0.12292683  0.06763088  1
  O  O29  1  0.36181432  0.37707324  0.93236970  1
  O  O30  1  0.13818472  0.62292690  0.43236941  1
  O  O31  1  0.13818472  0.87707331  0.56763039  1
  O  O32  1  0.63818484  0.87707331  0.93236970  1
  O  O33  1  0.63818484  0.62292690  0.06763088  1
  O  O34  1  0.86181444  0.37707324  0.56763039  1
  O  O35  1  0.86181444  0.12292683  0.43236941  1
  O  O36  1  0.31578640  0.00579799  0.25528216  1
  O  O37  1  0.31578640  0.49420208  0.74471842  1
  O  O38  1  0.18421373  0.50579806  0.24471813  1
  O  O39  1  0.18421373  0.99420215  0.75528167  1
  O  O40  1  0.68421385  0.99420215  0.74471842  1
  O  O41  1  0.68421385  0.50579806  0.25528216  1
  O  O42  1  0.81578652  0.49420208  0.75528167  1
  O  O43  1  0.81578652  0.00579799  0.24471813  1
  O  O44  1  0.08720203  0.34025706  0.40653353  1
  O  O45  1  0.08720203  0.15974301  0.59346705  1
  O  O46  1  0.41279810  0.84025713  0.09346676  1
  O  O47  1  0.58720215  0.34025706  0.09346676  1
  Al  Al48  1  0.24986234  0.46594033  0.38129568  1
  Al  Al49  1  0.24986234  0.03405974  0.61870490  1
  Al  Al50  1  0.25013779  0.96594041  0.11870461  1
  Al  Al51  1  0.25013779  0.53405981  0.88129519  1
  Al  Al52  1  0.75013791  0.53405981  0.61870490  1
  Al  Al53  1  0.75013791  0.96594041  0.38129568  1
  Al  Al54  1  0.74986246  0.03405974  0.88129519  1
  Al  Al55  1  0.74986246  0.46594033  0.11870461  1
  Mo  Mo56  1  0.02632164  0.74999957  0.50000029  1
  Mo  Mo57  1  0.52632067  0.74999957  0.00000000  1
  Mo  Mo58  1  0.97367861  0.24999950  0.50000029  1
  Mo  Mo59  1  0.47367849  0.24999950  0.00000000  1
  Mo  Mo60  1  0.39467234  0.11645932  0.35515442  1
  Mo  Mo61  1  0.39467234  0.38354075  0.64484538  1
  Mo  Mo62  1  0.10532779  0.61645940  0.14484509  1
  Mo  Mo63  1  0.10532779  0.88354082  0.85515471  1
  Mo  Mo64  1  0.60532791  0.88354082  0.64484538  1
  Mo  Mo65  1  0.60532791  0.61645940  0.35515442  1
  Mo  Mo66  1  0.89467246  0.38354075  0.85515471  1
  Mo  Mo67  1  0.89467246  0.11645932  0.14484509  1
