# generated using pymatgen
data_TmU2S3O2
_symmetry_space_group_name_H-M   'P 1'
_cell_length_a   10.85137043
_cell_length_b   10.85137043
_cell_length_c   10.85137043
_cell_angle_alpha   159.87898709
_cell_angle_beta   159.87898709
_cell_angle_gamma   28.60558533
_symmetry_Int_Tables_number   1
_chemical_formula_structural   TmU2S3O2
_chemical_formula_sum   'Tm1 U2 S3 O2'
_cell_volume   151.13522709
_cell_formula_units_Z   1
loop_
 _symmetry_equiv_pos_site_id
 _symmetry_equiv_pos_as_xyz
  1  'x, y, z'
loop_
 _atom_site_type_symbol
 _atom_site_label
 _atom_site_symmetry_multiplicity
 _atom_site_fract_x
 _atom_site_fract_y
 _atom_site_fract_z
 _atom_site_occupancy
  Tm  Tm0  1  0.00000000  0.00000000  0.00000000  1
  U  U1  1  0.31407500  0.31407500  0.00000000  1
  U  U2  1  0.68592500  0.68592500  0.00000000  1
  S  S3  1  0.12754600  0.12754600  0.00000000  1
  S  S4  1  0.87245400  0.87245400  0.00000000  1
  S  S5  1  0.50000000  0.50000000  0.00000000  1
  O  O6  1  0.75000000  0.25000000  0.50000000  1
  O  O7  1  0.25000000  0.75000000  0.50000000  1
