# generated using pymatgen
data_RbU2F9
_symmetry_space_group_name_H-M   'P 1'
_cell_length_a   7.09184900
_cell_length_b   8.79646400
_cell_length_c   11.73598200
_cell_angle_alpha   90.00000000
_cell_angle_beta   90.00000000
_cell_angle_gamma   90.00000000
_symmetry_Int_Tables_number   1
_chemical_formula_structural   RbU2F9
_chemical_formula_sum   'Rb4 U8 F36'
_cell_volume   732.12804684
_cell_formula_units_Z   4
loop_
 _symmetry_equiv_pos_site_id
 _symmetry_equiv_pos_as_xyz
  1  'x, y, z'
loop_
 _atom_site_type_symbol
 _atom_site_label
 _atom_site_symmetry_multiplicity
 _atom_site_fract_x
 _atom_site_fract_y
 _atom_site_fract_z
 _atom_site_occupancy
  Rb  Rb0  1  0.86647600  0.96805000  0.25000000  1
  Rb  Rb1  1  0.63352400  0.46805000  0.25000000  1
  Rb  Rb2  1  0.13352400  0.03195000  0.75000000  1
  Rb  Rb3  1  0.36647600  0.53195000  0.75000000  1
  U  U4  1  0.35090300  0.82358400  0.44923300  1
  U  U5  1  0.14909700  0.32358400  0.05076700  1
  U  U6  1  0.64909700  0.17641600  0.94923300  1
  U  U7  1  0.85090300  0.67641600  0.55076700  1
  U  U8  1  0.64909700  0.17641600  0.55076700  1
  U  U9  1  0.85090300  0.67641600  0.94923300  1
  U  U10  1  0.35090300  0.82358400  0.05076700  1
  U  U11  1  0.14909700  0.32358400  0.44923300  1
  F  F12  1  0.43100100  0.99417500  0.59710800  1
  F  F13  1  0.06899900  0.49417500  0.90289200  1
  F  F14  1  0.56899900  0.00582500  0.09710800  1
  F  F15  1  0.93100100  0.50582500  0.40289200  1
  F  F16  1  0.56899900  0.00582500  0.40289200  1
  F  F17  1  0.93100100  0.50582500  0.09710800  1
  F  F18  1  0.43100100  0.99417500  0.90289200  1
  F  F19  1  0.06899900  0.49417500  0.59710800  1
  F  F20  1  0.03416500  0.78634400  0.40750600  1
  F  F21  1  0.46583500  0.28634400  0.09249400  1
  F  F22  1  0.96583500  0.21365600  0.90750600  1
  F  F23  1  0.53416500  0.71365600  0.59249400  1
  F  F24  1  0.96583500  0.21365600  0.59249400  1
  F  F25  1  0.53416500  0.71365600  0.90750600  1
  F  F26  1  0.03416500  0.78634400  0.09249400  1
  F  F27  1  0.46583500  0.28634400  0.40750600  1
  F  F28  1  0.15162100  0.77906700  0.60467400  1
  F  F29  1  0.34837900  0.27906700  0.89532600  1
  F  F30  1  0.84837900  0.22093300  0.10467400  1
  F  F31  1  0.65162100  0.72093300  0.39532600  1
  F  F32  1  0.84837900  0.22093300  0.39532600  1
  F  F33  1  0.65162100  0.72093300  0.10467400  1
  F  F34  1  0.15162100  0.77906700  0.89532600  1
  F  F35  1  0.34837900  0.27906700  0.60467400  1
  F  F36  1  0.30673500  0.56644700  0.42285400  1
  F  F37  1  0.19326500  0.06644700  0.07714600  1
  F  F38  1  0.69326500  0.43355300  0.92285400  1
  F  F39  1  0.80673500  0.93355300  0.57714600  1
  F  F40  1  0.69326500  0.43355300  0.57714600  1
  F  F41  1  0.80673500  0.93355300  0.92285400  1
  F  F42  1  0.30673500  0.56644700  0.07714600  1
  F  F43  1  0.19326500  0.06644700  0.42285400  1
  F  F44  1  0.33953700  0.82482700  0.25000000  1
  F  F45  1  0.16046300  0.32482700  0.25000000  1
  F  F46  1  0.66046300  0.17517300  0.75000000  1
  F  F47  1  0.83953700  0.67517300  0.75000000  1
