# generated using pymatgen
data_Al3Tl4Fe(As2O7)4
_symmetry_space_group_name_H-M   'P 1'
_cell_length_a   6.40787730
_cell_length_b   6.48534013
_cell_length_c   16.40976990
_cell_angle_alpha   79.31169468
_cell_angle_beta   86.79184134
_cell_angle_gamma   102.99199222
_symmetry_Int_Tables_number   1
_chemical_formula_structural   Al3Tl4Fe(As2O7)4
_chemical_formula_sum   'Al3 Tl4 Fe1 As8 O28'
_cell_volume   649.55473457
_cell_formula_units_Z   1
loop_
 _symmetry_equiv_pos_site_id
 _symmetry_equiv_pos_as_xyz
  1  'x, y, z'
loop_
 _atom_site_type_symbol
 _atom_site_label
 _atom_site_symmetry_multiplicity
 _atom_site_fract_x
 _atom_site_fract_y
 _atom_site_fract_z
 _atom_site_occupancy
  Al  Al0  1  0.73936089  0.43012945  0.88538984  1
  Al  Al1  1  0.26107865  0.57069973  0.11326150  1
  Al  Al2  1  0.76050679  0.07012788  0.61533019  1
  Tl  Tl3  1  0.75051567  0.75101016  0.25011761  1
  Tl  Tl4  1  0.25029538  0.25090599  0.75031542  1
  Tl  Tl5  1  0.99928257  0.99985066  0.99967987  1
  Tl  Tl6  1  0.50023537  0.50076561  0.50015204  1
  Fe  Fe7  1  0.23919369  0.92765170  0.38617526  1
  As  As8  1  0.17880184  0.42553562  0.33001587  1
  As  As9  1  0.67854392  0.92654206  0.83185937  1
  As  As10  1  0.32143773  0.07505832  0.16500026  1
  As  As11  1  0.82054750  0.57329149  0.66853882  1
  As  As12  1  0.72925565  0.43609338  0.09277078  1
  As  As13  1  0.22889326  0.93413403  0.59656720  1
  As  As14  1  0.77157668  0.06726015  0.40764092  1
  As  As15  1  0.27166924  0.56467311  0.90684605  1
  O  O16  1  0.95471478  0.53915139  0.13632622  1
  O  O17  1  0.45501374  0.04200909  0.63867149  1
  O  O18  1  0.55495329  0.96348508  0.35979385  1
  O  O19  1  0.04577194  0.46070328  0.86368942  1
  O  O20  1  0.29997493  0.51752594  0.23131877  1
  O  O21  1  0.80020791  0.01676063  0.73294905  1
  O  O22  1  0.19148348  0.98416440  0.26259141  1
  O  O23  1  0.69919163  0.48254493  0.76749126  1
  O  O24  1  0.91945083  0.87819632  0.41095184  1
  O  O25  1  0.43038904  0.38512506  0.90715581  1
  O  O26  1  0.57040250  0.61528671  0.09257470  1
  O  O27  1  0.06991464  0.11450852  0.59318874  1
  O  O28  1  0.77074850  0.35161851  0.00296460  1
  O  O29  1  0.27656815  0.84320584  0.50899144  1
  O  O30  1  0.72763380  0.15179707  0.49705707  1
  O  O31  1  0.22894730  0.64897470  0.99641472  1
  O  O32  1  0.60235940  0.19402180  0.17006115  1
  O  O33  1  0.10102582  0.69280229  0.67348791  1
  O  O34  1  0.89789434  0.30455477  0.32828544  1
  O  O35  1  0.39701033  0.80611752  0.82922935  1
  O  O36  1  0.29353972  0.24248167  0.38831869  1
  O  O37  1  0.78657013  0.73352574  0.88797653  1
  O  O38  1  0.21452293  0.26920483  0.10927742  1
  O  O39  1  0.71370024  0.76712559  0.61225458  1
  O  O40  1  0.18846508  0.61517630  0.38841883  1
  O  O41  1  0.69490024  0.12493320  0.88699272  1
  O  O42  1  0.30755574  0.87566471  0.11069999  1
  O  O43  1  0.80589477  0.37560475  0.61320601  1
