# generated using pymatgen
data_Ho6Al7Cu16
_symmetry_space_group_name_H-M   'P 1'
_cell_length_a   8.70515671
_cell_length_b   8.70515671
_cell_length_c   8.70515671
_cell_angle_alpha   60.00000000
_cell_angle_beta   60.00000000
_cell_angle_gamma   60.00000000
_symmetry_Int_Tables_number   1
_chemical_formula_structural   Ho6Al7Cu16
_chemical_formula_sum   'Ho6 Al7 Cu16'
_cell_volume   466.46040285
_cell_formula_units_Z   1
loop_
 _symmetry_equiv_pos_site_id
 _symmetry_equiv_pos_as_xyz
  1  'x, y, z'
loop_
 _atom_site_type_symbol
 _atom_site_label
 _atom_site_symmetry_multiplicity
 _atom_site_fract_x
 _atom_site_fract_y
 _atom_site_fract_z
 _atom_site_occupancy
  Ho  Ho0  1  0.70953918  0.29046082  0.29046082  1
  Ho  Ho1  1  0.70953918  0.29046082  0.70953918  1
  Ho  Ho2  1  0.70953918  0.70953918  0.29046082  1
  Ho  Ho3  1  0.29046082  0.70953918  0.70953918  1
  Ho  Ho4  1  0.29046082  0.70953918  0.29046082  1
  Ho  Ho5  1  0.29046082  0.29046082  0.70953918  1
  Al  Al6  1  -0.00000000  0.00000000  0.00000000  1
  Al  Al7  1  0.50000000  0.00000000  0.00000000  1
  Al  Al8  1  0.50000000  0.00000000  0.50000000  1
  Al  Al9  1  0.50000000  0.50000000  0.00000000  1
  Al  Al10  1  -0.00000000  0.50000000  0.50000000  1
  Al  Al11  1  -0.00000000  0.50000000  0.00000000  1
  Al  Al12  1  -0.00000000  0.00000000  0.50000000  1
  Cu  Cu13  1  0.63815178  0.12061607  0.12061607  1
  Cu  Cu14  1  0.12061607  0.63815178  0.12061607  1
  Cu  Cu15  1  0.12061607  0.12061607  0.63815178  1
  Cu  Cu16  1  0.12061607  0.12061607  0.12061607  1
  Cu  Cu17  1  0.36184822  0.87938393  0.87938393  1
  Cu  Cu18  1  0.87938393  0.36184822  0.87938393  1
  Cu  Cu19  1  0.87938393  0.87938393  0.36184822  1
  Cu  Cu20  1  0.87938393  0.87938393  0.87938393  1
  Cu  Cu21  1  0.01836835  0.32721055  0.32721055  1
  Cu  Cu22  1  0.32721055  0.01836835  0.32721055  1
  Cu  Cu23  1  0.32721055  0.32721055  0.01836835  1
  Cu  Cu24  1  0.32721055  0.32721055  0.32721055  1
  Cu  Cu25  1  0.98163165  0.67278945  0.67278945  1
  Cu  Cu26  1  0.67278945  0.98163165  0.67278945  1
  Cu  Cu27  1  0.67278945  0.67278945  0.98163165  1
  Cu  Cu28  1  0.67278945  0.67278945  0.67278945  1
