# generated using pymatgen
data_Yb3H2Pb
_symmetry_space_group_name_H-M   'P 1'
_cell_length_a   7.17891601
_cell_length_b   7.17891601
_cell_length_c   5.31308900
_cell_angle_alpha   90.00000000
_cell_angle_beta   90.00000000
_cell_angle_gamma   104.29431409
_symmetry_Int_Tables_number   1
_chemical_formula_structural   Yb3H2Pb
_chemical_formula_sum   'Yb6 H4 Pb2'
_cell_volume   265.34239590
_cell_formula_units_Z   2
loop_
 _symmetry_equiv_pos_site_id
 _symmetry_equiv_pos_as_xyz
  1  'x, y, z'
loop_
 _atom_site_type_symbol
 _atom_site_label
 _atom_site_symmetry_multiplicity
 _atom_site_fract_x
 _atom_site_fract_y
 _atom_site_fract_z
 _atom_site_occupancy
  Yb  Yb0  1  0.89125700  0.10874300  0.75000000  1
  Yb  Yb1  1  0.10874300  0.89125700  0.25000000  1
  Yb  Yb2  1  0.81473000  0.59207500  0.75000000  1
  Yb  Yb3  1  0.18527000  0.40792500  0.25000000  1
  Yb  Yb4  1  0.40792500  0.18527000  0.75000000  1
  Yb  Yb5  1  0.59207500  0.81473000  0.25000000  1
  H  H6  1  0.15083600  0.15083600  0.50000000  1
  H  H7  1  0.84916400  0.84916400  0.50000000  1
  H  H8  1  0.84916400  0.84916400  0.00000000  1
  H  H9  1  0.15083600  0.15083600  0.00000000  1
  Pb  Pb10  1  0.30767800  0.69232200  0.75000000  1
  Pb  Pb11  1  0.69232200  0.30767800  0.25000000  1
