# generated using pymatgen
data_LuF3
_symmetry_space_group_name_H-M   'P 1'
_cell_length_a   6.68785223
_cell_length_b   6.68785223
_cell_length_c   6.82322800
_cell_angle_alpha   90.00000000
_cell_angle_beta   90.00000000
_cell_angle_gamma   120.00000232
_symmetry_Int_Tables_number   1
_chemical_formula_structural   LuF3
_chemical_formula_sum   'Lu6 F18'
_cell_volume   264.29797953
_cell_formula_units_Z   6
loop_
 _symmetry_equiv_pos_site_id
 _symmetry_equiv_pos_as_xyz
  1  'x, y, z'
loop_
 _atom_site_type_symbol
 _atom_site_label
 _atom_site_symmetry_multiplicity
 _atom_site_fract_x
 _atom_site_fract_y
 _atom_site_fract_z
 _atom_site_occupancy
  Lu  Lu0  1  0.34663400  0.00000000  0.75000000  1
  Lu  Lu1  1  0.65336600  0.00000000  0.25000000  1
  Lu  Lu2  1  0.00000000  0.34663400  0.75000000  1
  Lu  Lu3  1  0.00000000  0.65336600  0.25000000  1
  Lu  Lu4  1  0.65336600  0.65336600  0.75000000  1
  Lu  Lu5  1  0.34663400  0.34663400  0.25000000  1
  F  F6  1  0.00000000  0.00000000  0.75000000  1
  F  F7  1  0.00000000  0.00000000  0.25000000  1
  F  F8  1  0.33333300  0.66666700  0.68893300  1
  F  F9  1  0.66666700  0.33333300  0.31106700  1
  F  F10  1  0.66666700  0.33333300  0.81106700  1
  F  F11  1  0.33333300  0.66666700  0.18893300  1
  F  F12  1  0.37543400  0.30226100  0.57586500  1
  F  F13  1  0.62456600  0.69773900  0.42413500  1
  F  F14  1  0.69773900  0.07317400  0.57586500  1
  F  F15  1  0.30226100  0.37543400  0.92413500  1
  F  F16  1  0.30226100  0.92682600  0.42413500  1
  F  F17  1  0.69773900  0.62456600  0.07586500  1
  F  F18  1  0.92682600  0.62456600  0.57586500  1
  F  F19  1  0.07317400  0.69773900  0.92413500  1
  F  F20  1  0.07317400  0.37543400  0.42413500  1
  F  F21  1  0.92682600  0.30226100  0.07586500  1
  F  F22  1  0.62456600  0.92682600  0.92413500  1
  F  F23  1  0.37543400  0.07317400  0.07586500  1
