# generated using pymatgen
data_NaCoP2HO7
_symmetry_space_group_name_H-M   'P 1'
_cell_length_a   7.36695547
_cell_length_b   8.98225076
_cell_length_c   9.46957967
_cell_angle_alpha   105.97845625
_cell_angle_beta   109.39413809
_cell_angle_gamma   67.47321178
_symmetry_Int_Tables_number   1
_chemical_formula_structural   NaCoP2HO7
_chemical_formula_sum   'Na4 Co4 P8 H4 O28'
_cell_volume   538.02487082
_cell_formula_units_Z   4
loop_
 _symmetry_equiv_pos_site_id
 _symmetry_equiv_pos_as_xyz
  1  'x, y, z'
loop_
 _atom_site_type_symbol
 _atom_site_label
 _atom_site_symmetry_multiplicity
 _atom_site_fract_x
 _atom_site_fract_y
 _atom_site_fract_z
 _atom_site_occupancy
  Na  Na0  1  0.31737900  0.93581700  0.55326700  1
  Na  Na1  1  0.81738900  0.43560200  0.05330000  1
  Na  Na2  1  0.20703000  0.55739600  0.89531400  1
  Na  Na3  1  0.70708500  0.05732800  0.39482600  1
  Co  Co4  1  0.74228500  0.87421400  0.02360800  1
  Co  Co5  1  0.76130200  0.62238100  0.47378600  1
  Co  Co6  1  0.24155000  0.37470700  0.52364800  1
  Co  Co7  1  0.26209400  0.12162900  0.97385100  1
  P  P8  1  0.04693300  0.09089700  0.20927500  1
  P  P9  1  0.54707600  0.59096100  0.70917300  1
  P  P10  1  0.45277900  0.41019000  0.29041700  1
  P  P11  1  0.95282700  0.91019700  0.79042400  1
  P  P12  1  0.54947900  0.16753700  0.81101100  1
  P  P13  1  0.04934400  0.66775800  0.31113900  1
  P  P14  1  0.94964400  0.33201900  0.68819400  1
  P  P15  1  0.44967300  0.83222900  0.18825200  1
  H  H16  1  0.02722400  0.17262200  0.45956800  1
  H  H17  1  0.52745300  0.67276200  0.95964000  1
  H  H18  1  0.47256800  0.33086200  0.04385000  1
  H  H19  1  0.97236000  0.83110800  0.54387800  1
  O  O20  1  0.10977500  0.17210200  0.38102600  1
  O  O21  1  0.60983700  0.67239100  0.88092600  1
  O  O22  1  0.39397600  0.32632800  0.11884700  1
  O  O23  1  0.89381200  0.82650900  0.61878700  1
  O  O24  1  0.53916400  0.33032800  0.92093200  1
  O  O25  1  0.03932500  0.83050200  0.42098500  1
  O  O26  1  0.96019000  0.17149200  0.57453500  1
  O  O27  1  0.46043800  0.67178300  0.07444500  1
  O  O28  1  0.50874800  0.04629900  0.87646500  1
  O  O29  1  0.00847200  0.54657900  0.37661600  1
  O  O30  1  0.99669500  0.45391200  0.62788400  1
  O  O31  1  0.49665400  0.95442800  0.12828100  1
  O  O32  1  0.34653300  0.56182000  0.67509900  1
  O  O33  1  0.84675600  0.06125400  0.17561100  1
  O  O34  1  0.15440800  0.93786800  0.82792800  1
  O  O35  1  0.65425100  0.43789000  0.32781000  1
  O  O36  1  0.41860400  0.18335000  0.64953900  1
  O  O37  1  0.91855500  0.68329300  0.14955100  1
  O  O38  1  0.07492500  0.31476900  0.85084300  1
  O  O39  1  0.57493300  0.81492800  0.35090300  1
  O  O40  1  0.78428100  0.08906500  0.80187300  1
  O  O41  1  0.28401700  0.58908800  0.30178300  1
  O  O42  1  0.71445900  0.41104400  0.69576100  1
  O  O43  1  0.21454400  0.91093700  0.19571000  1
  O  O44  1  0.56610200  0.68855800  0.60989500  1
  O  O45  1  0.06562700  0.18852300  0.10990400  1
  O  O46  1  0.93330400  0.80996700  0.88725900  1
  O  O47  1  0.43294200  0.30997900  0.38718200  1
