# generated using pymatgen
data_YbAlF5
_symmetry_space_group_name_H-M   'P 1'
_cell_length_a   6.94169722
_cell_length_b   10.42298119
_cell_length_c   10.37872494
_cell_angle_alpha   83.73175103
_cell_angle_beta   70.26198704
_cell_angle_gamma   70.01752914
_symmetry_Int_Tables_number   1
_chemical_formula_structural   YbAlF5
_chemical_formula_sum   'Yb8 Al8 F40'
_cell_volume   664.24528532
_cell_formula_units_Z   8
loop_
 _symmetry_equiv_pos_site_id
 _symmetry_equiv_pos_as_xyz
  1  'x, y, z'
loop_
 _atom_site_type_symbol
 _atom_site_label
 _atom_site_symmetry_multiplicity
 _atom_site_fract_x
 _atom_site_fract_y
 _atom_site_fract_z
 _atom_site_occupancy
  Yb  Yb0  1  0.02753958  0.66797703  0.19655907  1
  Yb  Yb1  1  0.23443319  0.27727419  0.17762585  1
  Yb  Yb2  1  0.23231407  0.79941729  0.66218388  1
  Yb  Yb3  1  0.41146355  0.81935298  0.27299164  1
  Yb  Yb4  1  0.50631745  0.18131222  0.72099162  1
  Yb  Yb5  1  0.68525522  0.20241946  0.33195904  1
  Yb  Yb6  1  0.68284247  0.72394551  0.81654895  1
  Yb  Yb7  1  0.88932298  0.33375264  0.79774481  1
  Al  Al8  1  0.45575109  0.00065114  0.99695185  1
  Al  Al9  1  0.95908587  0.50039783  0.49724603  1
  Al  Al10  1  0.12233361  0.14499024  0.51464035  1
  Al  Al11  1  0.26454581  0.51787398  0.85129282  1
  Al  Al12  1  0.95559869  0.00113583  0.99701819  1
  Al  Al13  1  0.45888392  0.50059491  0.49755135  1
  Al  Al14  1  0.65231700  0.48310414  0.14327480  1
  Al  Al15  1  0.79572529  0.85572546  0.47898439  1
  F  F16  1  0.99907504  0.17957262  0.37435716  1
  F  F17  1  0.37550197  0.03396093  0.17816722  1
  F  F18  1  0.98431404  0.33166707  0.55652708  1
  F  F19  1  0.03048943  0.45778703  0.31825363  1
  F  F20  1  0.21283670  0.49465122  0.03162951  1
  F  F21  1  0.04462698  0.86211261  0.34484344  1
  F  F22  1  0.22990703  0.16047192  0.65276848  1
  F  F23  1  0.48287108  0.82224515  0.03235680  1
  F  F24  1  0.00428856  0.65319222  0.86925730  1
  F  F25  1  0.34406147  0.19115928  0.38315038  1
  F  F26  1  0.24078490  0.47141864  0.46450085  1
  F  F27  1  0.17712170  0.37555886  0.82416459  1
  F  F28  1  0.43032916  0.17888290  0.96161825  1
  F  F29  1  0.37955875  0.61391392  0.19524014  1
  F  F30  1  0.52199167  0.34906912  0.16762464  1
  F  F31  1  0.79628928  0.06210572  0.16882554  1
  F  F32  1  0.24063234  0.96452022  0.49036560  1
  F  F33  1  0.29035598  0.55843674  0.66583271  1
  F  F34  1  0.37748252  0.67955779  0.45201207  1
  F  F35  1  0.54065214  0.32148071  0.54263553  1
  F  F36  1  0.62663989  0.44334467  0.32898995  1
  F  F37  1  0.67712219  0.03606576  0.50257715  1
  F  F38  1  0.39439532  0.65233810  0.82751785  1
  F  F39  1  0.53761061  0.38737299  0.79872986  1
  F  F40  1  0.74064970  0.62510232  0.16963257  1
  F  F41  1  0.53710621  0.96709841  0.81562480  1
  F  F42  1  0.67719808  0.52925670  0.53078971  1
  F  F43  1  0.57411129  0.80940253  0.61055117  1
  F  F44  1  0.91173300  0.34685814  0.12594279  1
  F  F45  1  0.85304873  0.16931466  0.93223836  1
  F  F46  1  0.68867357  0.83928139  0.34070876  1
  F  F47  1  0.05744805  0.83280576  0.06161545  1
  F  F48  1  0.87331462  0.13805244  0.64803755  1
  F  F49  1  0.70427140  0.50601814  0.96287569  1
  F  F50  1  0.88754310  0.54345449  0.67618578  1
  F  F51  1  0.93391670  0.66916519  0.43806121  1
  F  F52  1  0.17408433  0.05055872  0.01467184  1
  F  F53  1  0.73773505  0.95141538  0.97885769  1
  F  F54  1  0.91851707  0.82235906  0.61945344  1
  F  F55  1  0.11638158  0.94004765  0.82544280  1
