# generated using pymatgen
data_GeH4
_symmetry_space_group_name_H-M   'P 1'
_cell_length_a   4.61056900
_cell_length_b   9.05741200
_cell_length_c   9.23121874
_cell_angle_alpha   67.28906733
_cell_angle_beta   90.00000000
_cell_angle_gamma   90.00000000
_symmetry_Int_Tables_number   1
_chemical_formula_structural   GeH4
_chemical_formula_sum   'Ge4 H16'
_cell_volume   355.60456161
_cell_formula_units_Z   4
loop_
 _symmetry_equiv_pos_site_id
 _symmetry_equiv_pos_as_xyz
  1  'x, y, z'
loop_
 _atom_site_type_symbol
 _atom_site_label
 _atom_site_symmetry_multiplicity
 _atom_site_fract_x
 _atom_site_fract_y
 _atom_site_fract_z
 _atom_site_occupancy
  Ge  Ge0  1  0.92866900  0.76166900  0.14966900  1
  Ge  Ge1  1  0.92866900  0.23833100  0.35033100  1
  Ge  Ge2  1  0.07133100  0.23833100  0.85033100  1
  Ge  Ge3  1  0.07133100  0.76166900  0.64966900  1
  H  H4  1  0.61511500  0.81092500  0.09831600  1
  H  H5  1  0.61511500  0.18907500  0.40168400  1
  H  H6  1  0.38488500  0.18907500  0.90168400  1
  H  H7  1  0.38488500  0.81092500  0.59831600  1
  H  H8  1  0.08259800  0.71580900  0.02554500  1
  H  H9  1  0.08259800  0.28419100  0.47445500  1
  H  H10  1  0.91740200  0.28419100  0.97445500  1
  H  H11  1  0.91740200  0.71580900  0.52554500  1
  H  H12  1  0.91934500  0.61765900  0.30686200  1
  H  H13  1  0.91934500  0.38234100  0.19313800  1
  H  H14  1  0.08065500  0.38234100  0.69313800  1
  H  H15  1  0.08065500  0.61765900  0.80686200  1
  H  H16  1  0.08582800  0.90088400  0.17243400  1
  H  H17  1  0.08582800  0.09911600  0.32756600  1
  H  H18  1  0.91417200  0.09911600  0.82756600  1
  H  H19  1  0.91417200  0.90088400  0.67243400  1
