# generated using pymatgen
data_NaTb(SiO3)2
_symmetry_space_group_name_H-M   'P 1'
_cell_length_a   5.54955362
_cell_length_b   9.47472131
_cell_length_c   9.80953589
_cell_angle_alpha   117.23392797
_cell_angle_beta   97.24679433
_cell_angle_gamma   99.82337921
_symmetry_Int_Tables_number   1
_chemical_formula_structural   NaTb(SiO3)2
_chemical_formula_sum   'Na3 Tb3 Si6 O18'
_cell_volume   439.44033094
_cell_formula_units_Z   3
loop_
 _symmetry_equiv_pos_site_id
 _symmetry_equiv_pos_as_xyz
  1  'x, y, z'
loop_
 _atom_site_type_symbol
 _atom_site_label
 _atom_site_symmetry_multiplicity
 _atom_site_fract_x
 _atom_site_fract_y
 _atom_site_fract_z
 _atom_site_occupancy
  Na  Na0  1  -0.00000000  -0.00000000  0.00000000  1
  Na  Na1  1  0.17063626  0.59898881  0.93196107  1
  Na  Na2  1  0.82936374  0.40101119  0.06803893  1
  Tb  Tb3  1  -0.00000000  0.50000000  0.50000000  1
  Tb  Tb4  1  0.31911360  0.77887239  0.36123877  1
  Tb  Tb5  1  0.68088640  0.22112761  0.63876123  1
  Si  Si6  1  0.77552495  0.76697376  0.12423516  1
  Si  Si7  1  0.22447505  0.23302624  0.87576484  1
  Si  Si8  1  0.89378917  0.87843133  0.62895504  1
  Si  Si9  1  0.10621083  0.12156867  0.37104496  1
  Si  Si10  1  0.60998377  0.63734846  0.74767701  1
  Si  Si11  1  0.39001623  0.36265154  0.25232299  1
  O  O12  1  0.50508160  0.72476620  0.15869700  1
  O  O13  1  0.49491840  0.27523380  0.84130300  1
  O  O14  1  0.98087560  0.67987623  0.16163188  1
  O  O15  1  0.01912440  0.32012377  0.83836812  1
  O  O16  1  0.90339231  0.96864543  0.21244016  1
  O  O17  1  0.09660769  0.03135457  0.78755984  1
  O  O18  1  0.04033953  0.75742091  0.51308788  1
  O  O19  1  0.95966047  0.24257909  0.48691212  1
  O  O20  1  0.69886636  0.94666196  0.55090878  1
  O  O21  1  0.30113364  0.05333804  0.44909122  1
  O  O22  1  0.74020384  0.77595401  0.70330231  1
  O  O23  1  0.25979616  0.22404599  0.29669769  1
  O  O24  1  0.31051002  0.60923797  0.72125748  1
  O  O25  1  0.68948998  0.39076203  0.27874252  1
  O  O26  1  0.70964645  0.47416122  0.64966717  1
  O  O27  1  0.29035355  0.52583878  0.35033283  1
  O  O28  1  0.75361014  0.72383409  0.93680775  1
  O  O29  1  0.24638986  0.27616591  0.06319225  1
