# generated using pymatgen
data_Er7(TeIr)2
_symmetry_space_group_name_H-M   'P 1'
_cell_length_a   9.34488111
_cell_length_b   9.34488111
_cell_length_c   9.34488111
_cell_angle_alpha   155.76505364
_cell_angle_beta   119.35664395
_cell_angle_gamma   66.28958077
_symmetry_Int_Tables_number   1
_chemical_formula_structural   Er7(TeIr)2
_chemical_formula_sum   'Er7 Te2 Ir2'
_cell_volume   289.64840500
_cell_formula_units_Z   1
loop_
 _symmetry_equiv_pos_site_id
 _symmetry_equiv_pos_as_xyz
  1  'x, y, z'
loop_
 _atom_site_type_symbol
 _atom_site_label
 _atom_site_symmetry_multiplicity
 _atom_site_fract_x
 _atom_site_fract_y
 _atom_site_fract_z
 _atom_site_occupancy
  Er  Er0  1  0.54688700  0.13192400  0.41496400  1
  Er  Er1  1  0.28304000  0.86807600  0.41496400  1
  Er  Er2  1  0.93994300  0.31544100  0.62450200  1
  Er  Er3  1  0.30906100  0.68455900  0.62450200  1
  Er  Er4  1  0.62125400  0.35383400  0.26741900  1
  Er  Er5  1  0.91358500  0.64616600  0.26741900  1
  Er  Er6  1  0.99961300  0.00000000  0.99961300  1
  Te  Te7  1  0.26351300  0.50000000  0.76351300  1
  Te  Te8  1  0.66180600  0.00000000  0.66180600  1
  Ir  Ir9  1  0.16391400  0.23783500  0.92607900  1
  Ir  Ir10  1  0.68824400  0.76216500  0.92607900  1
