# generated using pymatgen
data_Ho2AlFe3
_symmetry_space_group_name_H-M   'P 1'
_cell_length_a   5.17718271
_cell_length_b   5.18230342
_cell_length_c   5.17718271
_cell_angle_alpha   90.00000000
_cell_angle_beta   60.00000000
_cell_angle_gamma   119.96732779
_symmetry_Int_Tables_number   1
_chemical_formula_structural   Ho2AlFe3
_chemical_formula_sum   'Ho2 Al1 Fe3'
_cell_volume   98.26732162
_cell_formula_units_Z   1
loop_
 _symmetry_equiv_pos_site_id
 _symmetry_equiv_pos_as_xyz
  1  'x, y, z'
loop_
 _atom_site_type_symbol
 _atom_site_label
 _atom_site_symmetry_multiplicity
 _atom_site_fract_x
 _atom_site_fract_y
 _atom_site_fract_z
 _atom_site_occupancy
  Ho  Ho0  1  0.74451200  0.36676800  0.37774400  1
  Ho  Ho1  1  0.25548800  0.63323200  0.62225600  1
  Al  Al2  1  0.50000000  0.50000000  0.00000000  1
  Fe  Fe3  1  0.50000000  0.00000000  0.00000000  1
  Fe  Fe4  1  0.00000000  0.00000000  0.50000000  1
  Fe  Fe5  1  0.00000000  0.00000000  0.00000000  1
