# generated using pymatgen
data_Ba2Mn(PO4)2
_symmetry_space_group_name_H-M   'P 1'
_cell_length_a   5.41325311
_cell_length_b   9.11716030
_cell_length_c   16.44473372
_cell_angle_alpha   90.00000000
_cell_angle_beta   90.35895612
_cell_angle_gamma   90.00000000
_symmetry_Int_Tables_number   1
_chemical_formula_structural   Ba2Mn(PO4)2
_chemical_formula_sum   'Ba8 Mn4 P8 O32'
_cell_volume   811.58917717
_cell_formula_units_Z   4
loop_
 _symmetry_equiv_pos_site_id
 _symmetry_equiv_pos_as_xyz
  1  'x, y, z'
loop_
 _atom_site_type_symbol
 _atom_site_label
 _atom_site_symmetry_multiplicity
 _atom_site_fract_x
 _atom_site_fract_y
 _atom_site_fract_z
 _atom_site_occupancy
  O  O0  1  0.83753559  0.98946065  0.73649830  1
  O  O1  1  0.66246413  0.48946003  0.76350171  1
  O  O2  1  0.16246361  0.01053949  0.26350150  1
  O  O3  1  0.33753691  0.51053901  0.23649810  1
  O  O4  1  0.45352993  0.88761451  0.66577349  1
  O  O5  1  0.04647046  0.38761389  0.83422661  1
  O  O6  1  0.54646926  0.11238563  0.33422631  1
  O  O7  1  0.95353059  0.61238625  0.16577381  1
  O  O8  1  0.85849216  0.73905617  0.66963224  1
  O  O9  1  0.64150941  0.23905555  0.83036778  1
  O  O10  1  0.14150889  0.26094397  0.33036757  1
  O  O11  1  0.35849163  0.76094459  0.16963203  1
  O  O12  1  0.82883194  0.96762252  0.58231060  1
  O  O13  1  0.67116962  0.46762191  0.91768881  1
  O  O14  1  0.17116910  0.03237762  0.41768921  1
  O  O15  1  0.32883142  0.53237714  0.08231100  1
  O  O16  1  0.47686119  0.85167738  0.87650445  1
  O  O17  1  0.02313735  0.35167786  0.62349566  1
  O  O18  1  0.52313801  0.14832275  0.12349597  1
  O  O19  1  0.97686184  0.64832228  0.37650415  1
  O  O20  1  0.79037872  0.59804317  0.51404135  1
  O  O21  1  0.70962099  0.09804365  0.98595866  1
  O  O22  1  0.20962232  0.40195587  0.48595907  1
  O  O23  1  0.29037820  0.90195649  0.01404114  1
  O  O24  1  0.52082950  0.69858765  0.39929962  1
  O  O25  1  0.97917035  0.19858813  0.10070050  1
  O  O26  1  0.16878200  0.06000076  0.88896209  1
  O  O27  1  0.02082884  0.80141201  0.89929931  1
  O  O28  1  0.66878265  0.43999876  0.38896180  1
  O  O29  1  0.83121719  0.93999938  0.11103832  1
  O  O30  1  0.33121839  0.56000138  0.61103801  1
  O  O31  1  0.47916969  0.30141249  0.60070080  1
  P  P32  1  0.74145094  0.89592360  0.66302689  1
  P  P33  1  0.75854877  0.39592408  0.83697313  1
  P  P34  1  0.25855010  0.10407654  0.33697292  1
  P  P35  1  0.24145042  0.60407606  0.16302668  1
  P  P36  1  0.23972799  0.90460753  0.92208583  1
  P  P37  1  0.73972865  0.59539213  0.42208614  1
  P  P38  1  0.76027120  0.09539151  0.07791398  1
  P  P39  1  0.26027240  0.40460801  0.57791428  1
  Mn  Mn40  1  0.76830135  0.01787283  0.86436727  1
  Mn  Mn41  1  0.73169836  0.51787345  0.63563275  1
  Mn  Mn42  1  0.26830268  0.48212669  0.36436767  1
  Mn  Mn43  1  0.23169784  0.98212730  0.13563254  1
  Ba  Ba44  1  0.23982110  0.65739321  0.77042519  1
  Ba  Ba45  1  0.26017929  0.15739368  0.72957491  1
  Ba  Ba46  1  0.76017809  0.34260693  0.22957522  1
  Ba  Ba47  1  0.73982176  0.84260645  0.27042490  1
  Ba  Ba48  1  0.79629475  0.20212830  0.47947118  1
  Ba  Ba49  1  0.70370510  0.70212892  0.02052894  1
  Ba  Ba50  1  0.20370629  0.79787074  0.52052863  1
  Ba  Ba51  1  0.29629409  0.29787122  0.97947087  1
