# generated using pymatgen
data_Ba8(MnN3)3
_symmetry_space_group_name_H-M   'P 1'
_cell_length_a   8.07022952
_cell_length_b   11.28315783
_cell_length_c   19.92077014
_cell_angle_alpha   90.00000000
_cell_angle_beta   105.14165580
_cell_angle_gamma   90.00000000
_symmetry_Int_Tables_number   1
_chemical_formula_structural   Ba8(MnN3)3
_chemical_formula_sum   'Ba32 Mn12 N36'
_cell_volume   1750.96442579
_cell_formula_units_Z   4
loop_
 _symmetry_equiv_pos_site_id
 _symmetry_equiv_pos_as_xyz
  1  'x, y, z'
loop_
 _atom_site_type_symbol
 _atom_site_label
 _atom_site_symmetry_multiplicity
 _atom_site_fract_x
 _atom_site_fract_y
 _atom_site_fract_z
 _atom_site_occupancy
  Ba  Ba0  1  0.51877963  0.87417310  0.07747975  1
  Ba  Ba1  1  0.48122037  0.37417310  0.42252025  1
  Ba  Ba2  1  0.48122037  0.12582690  0.92252025  1
  Ba  Ba3  1  0.51877963  0.62582690  0.57747975  1
  Ba  Ba4  1  0.51431243  0.12631065  0.58601955  1
  Ba  Ba5  1  0.48568757  0.62631065  0.91398045  1
  Ba  Ba6  1  0.48568757  0.87368935  0.41398045  1
  Ba  Ba7  1  0.51431243  0.37368935  0.08601955  1
  Ba  Ba8  1  0.71883003  0.86175027  0.72128331  1
  Ba  Ba9  1  0.28116997  0.36175027  0.77871669  1
  Ba  Ba10  1  0.28116997  0.13824973  0.27871669  1
  Ba  Ba11  1  0.71883003  0.63824973  0.22128331  1
  Ba  Ba12  1  0.73926064  0.38515129  0.73071602  1
  Ba  Ba13  1  0.26073936  0.88515129  0.76928398  1
  Ba  Ba14  1  0.26073936  0.61484871  0.26928398  1
  Ba  Ba15  1  0.73926064  0.11484871  0.23071602  1
  Ba  Ba16  1  0.79343072  0.37463451  0.94252533  1
  Ba  Ba17  1  0.20656928  0.87463451  0.55747467  1
  Ba  Ba18  1  0.20656928  0.62536549  0.05747467  1
  Ba  Ba19  1  0.79343072  0.12536549  0.44252533  1
  Ba  Ba20  1  0.93736814  0.12710015  0.85576095  1
  Ba  Ba21  1  0.06263186  0.62710015  0.64423905  1
  Ba  Ba22  1  0.06263186  0.87289985  0.14423905  1
  Ba  Ba23  1  0.93736814  0.37289985  0.35576095  1
  Ba  Ba24  1  0.00261712  0.12478761  0.64697114  1
  Ba  Ba25  1  0.99738288  0.62478761  0.85302886  1
  Ba  Ba26  1  0.99738288  0.87521239  0.35302886  1
  Ba  Ba27  1  0.00261712  0.37521239  0.14697114  1
  Ba  Ba28  1  0.18533284  0.36968169  0.54964722  1
  Ba  Ba29  1  0.81466716  0.86968169  0.95035278  1
  Ba  Ba30  1  0.81466716  0.63031831  0.45035278  1
  Ba  Ba31  1  0.18533284  0.13031831  0.04964722  1
  Mn  Mn32  1  0.55427139  0.13929678  0.75509669  1
  Mn  Mn33  1  0.44572861  0.63929678  0.74490331  1
  Mn  Mn34  1  0.44572861  0.86070322  0.24490331  1
  Mn  Mn35  1  0.55427139  0.36070322  0.25509669  1
  Mn  Mn36  1  0.79855483  0.87356554  0.56439797  1
  Mn  Mn37  1  0.20144517  0.37356554  0.93560203  1
  Mn  Mn38  1  0.20144517  0.12643446  0.43560203  1
  Mn  Mn39  1  0.79855483  0.62643446  0.06439797  1
  Mn  Mn40  1  0.79313744  0.37660933  0.56754097  1
  Mn  Mn41  1  0.20686256  0.87660933  0.93245903  1
  Mn  Mn42  1  0.20686256  0.62339067  0.43245903  1
  Mn  Mn43  1  0.79313744  0.12339067  0.06754097  1
  N  N44  1  0.58486167  0.37607873  0.57430458  1
  N  N45  1  0.41513833  0.87607873  0.92569542  1
  N  N46  1  0.41513833  0.62392127  0.42569542  1
  N  N47  1  0.58486167  0.12392127  0.07430458  1
  N  N48  1  0.60356235  0.24128755  0.82235705  1
  N  N49  1  0.39643765  0.74128755  0.67764295  1
  N  N50  1  0.39643765  0.75871245  0.17764295  1
  N  N51  1  0.60356235  0.25871245  0.32235705  1
  N  N52  1  0.83265265  0.12180629  0.98553440  1
  N  N53  1  0.16734735  0.62180629  0.51446560  1
  N  N54  1  0.16734735  0.87819371  0.01446560  1
  N  N55  1  0.83265265  0.37819371  0.48553440  1
  N  N56  1  0.59072410  0.87829959  0.56877203  1
  N  N57  1  0.40927590  0.37829959  0.93122797  1
  N  N58  1  0.40927590  0.12170041  0.43122797  1
  N  N59  1  0.59072410  0.62170041  0.06877203  1
  N  N60  1  0.73236915  0.11330282  0.72152902  1
  N  N61  1  0.26763085  0.61330282  0.77847098  1
  N  N62  1  0.26763085  0.88669718  0.27847098  1
  N  N63  1  0.73236915  0.38669718  0.22152902  1
  N  N64  1  0.96968989  0.37938170  0.64024962  1
  N  N65  1  0.03031011  0.87938170  0.85975038  1
  N  N66  1  0.03031011  0.62061830  0.35975038  1
  N  N67  1  0.96968989  0.12061830  0.14024962  1
  N  N68  1  0.03634760  0.37241097  0.85798670  1
  N  N69  1  0.96365240  0.87241097  0.64201330  1
  N  N70  1  0.96365240  0.62758903  0.14201330  1
  N  N71  1  0.03634760  0.12758903  0.35798670  1
  N  N72  1  0.15318637  0.12663530  0.51478751  1
  N  N73  1  0.84681363  0.62663530  0.98521249  1
  N  N74  1  0.84681363  0.87336470  0.48521249  1
  N  N75  1  0.15318637  0.37336470  0.01478751  1
  N  N76  1  0.34550004  0.12344539  0.70554444  1
  N  N77  1  0.65449996  0.62344539  0.79445556  1
  N  N78  1  0.65449996  0.87655461  0.29445556  1
  N  N79  1  0.34550004  0.37655461  0.20554444  1
