# generated using pymatgen
data_Gd5Si4
_symmetry_space_group_name_H-M   'P 1'
_cell_length_a   7.51738720
_cell_length_b   7.76971033
_cell_length_c   14.80470222
_cell_angle_alpha   90.01840477
_cell_angle_beta   89.99251402
_cell_angle_gamma   90.06434544
_symmetry_Int_Tables_number   1
_chemical_formula_structural   Gd5Si4
_chemical_formula_sum   'Gd20 Si16'
_cell_volume   864.71127991
_cell_formula_units_Z   4
loop_
 _symmetry_equiv_pos_site_id
 _symmetry_equiv_pos_as_xyz
  1  'x, y, z'
loop_
 _atom_site_type_symbol
 _atom_site_label
 _atom_site_symmetry_multiplicity
 _atom_site_fract_x
 _atom_site_fract_y
 _atom_site_fract_z
 _atom_site_occupancy
  Gd  Gd0  1  0.47121600  0.68269000  0.59738000  1
  Gd  Gd1  1  0.97168700  0.81616200  0.90135700  1
  Gd  Gd2  1  0.52814900  0.31726500  0.09798300  1
  Gd  Gd3  1  0.02855300  0.18337900  0.40338800  1
  Gd  Gd4  1  0.52875200  0.31643200  0.40359100  1
  Gd  Gd5  1  0.03018100  0.18197200  0.09838200  1
  Gd  Gd6  1  0.46983000  0.68345300  0.90038400  1
  Gd  Gd7  1  0.97084000  0.81652400  0.59723800  1
  Gd  Gd8  1  0.81658200  0.32085900  0.62177400  1
  Gd  Gd9  1  0.31587700  0.17946200  0.87611200  1
  Gd  Gd10  1  0.18309600  0.68010400  0.12317200  1
  Gd  Gd11  1  0.68406500  0.82077800  0.37878800  1
  Gd  Gd12  1  0.18345800  0.67955800  0.37843100  1
  Gd  Gd13  1  0.68425100  0.82031200  0.12296700  1
  Gd  Gd14  1  0.81667200  0.32146800  0.87577600  1
  Gd  Gd15  1  0.31565900  0.18019600  0.62212500  1
  Gd  Gd16  1  0.35477300  0.01061200  0.25152200  1
  Gd  Gd17  1  0.85767600  0.48933300  0.25219900  1
  Gd  Gd18  1  0.64431500  0.98732600  0.74893000  1
  Gd  Gd19  1  0.14413400  0.51247000  0.74886500  1
  Si  Si20  1  0.64360000  0.02807800  0.54026800  1
  Si  Si21  1  0.14424200  0.47317900  0.95937600  1
  Si  Si22  1  0.35618700  0.97075800  0.03971300  1
  Si  Si23  1  0.85703600  0.52791100  0.46052200  1
  Si  Si24  1  0.35570100  0.97164700  0.46043300  1
  Si  Si25  1  0.85729400  0.52895700  0.03962800  1
  Si  Si26  1  0.64323200  0.02707200  0.95936100  1
  Si  Si27  1  0.14372700  0.47217300  0.54012300  1
  Si  Si28  1  0.47791300  0.60106000  0.25047400  1
  Si  Si29  1  0.97923500  0.89933300  0.25065700  1
  Si  Si30  1  0.52031900  0.40057000  0.74922500  1
  Si  Si31  1  0.02128100  0.10029200  0.74911500  1
  Si  Si32  1  0.24028900  0.37498700  0.25088000  1
  Si  Si33  1  0.74132700  0.12473400  0.25110400  1
  Si  Si34  1  0.75986500  0.62467700  0.74919200  1
  Si  Si35  1  0.25898900  0.87421600  0.74956500  1
