# generated using pymatgen
data_BaV2O6
_symmetry_space_group_name_H-M   'P 1'
_cell_length_a   7.77286123
_cell_length_b   7.77286123
_cell_length_c   8.07465132
_cell_angle_alpha   90.00000000
_cell_angle_beta   90.00000000
_cell_angle_gamma   112.52877767
_symmetry_Int_Tables_number   1
_chemical_formula_structural   BaV2O6
_chemical_formula_sum   'Ba3 V6 O18'
_cell_volume   450.62007450
_cell_formula_units_Z   3
loop_
 _symmetry_equiv_pos_site_id
 _symmetry_equiv_pos_as_xyz
  1  'x, y, z'
loop_
 _atom_site_type_symbol
 _atom_site_label
 _atom_site_symmetry_multiplicity
 _atom_site_fract_x
 _atom_site_fract_y
 _atom_site_fract_z
 _atom_site_occupancy
  O  O0  1  0.85630827  0.58920147  0.06044936  1
  O  O1  1  0.14369219  0.41079928  0.06044936  1
  O  O2  1  0.58920093  0.85630786  0.93955068  1
  O  O3  1  0.41079954  0.14369289  0.93955068  1
  O  O4  1  0.82904427  0.50716375  0.41141724  1
  O  O5  1  0.17095566  0.49283560  0.41141724  1
  O  O6  1  0.50716434  0.82904497  0.58858280  1
  O  O7  1  0.49283612  0.17095578  0.58858280  1
  O  O8  1  0.12958133  0.68186951  0.81661441  1
  O  O9  1  0.49999959  0.50000037  0.75285405  1
  O  O10  1  0.49999959  0.50000037  0.24714599  1
  O  O11  1  0.16651961  0.16550026  0.70135486  1
  O  O12  1  0.83348032  0.83449910  0.70135486  1
  O  O13  1  0.87041859  0.31812984  0.81661441  1
  O  O14  1  0.83449911  0.83348045  0.29864518  1
  O  O15  1  0.31812973  0.87041891  0.18338563  1
  O  O16  1  0.68187073  0.12958184  0.18338563  1
  O  O17  1  0.16550082  0.16651890  0.29864518  1
  V  V18  1  0.99999976  0.50000050  0.93388045  1
  V  V19  1  0.49999982  0.99999987  0.06611959  1
  V  V20  1  0.25051783  0.39859073  0.25894286  1
  V  V21  1  0.74948263  0.60141002  0.25894286  1
  V  V22  1  0.60140969  0.74948217  0.74105718  1
  V  V23  1  0.39859078  0.25051858  0.74105718  1
  Ba  Ba24  1  0.83546475  0.16453540  0.49999940  1
  Ba  Ba25  1  0.16453518  0.83546395  0.49999940  1
  Ba  Ba26  1  0.00000000  0.00000000  0.00000000  1
