# generated using pymatgen
data_Te6RuBr8
_symmetry_space_group_name_H-M   'P 1'
_cell_length_a   17.12602800
_cell_length_b   9.83332400
_cell_length_c   15.06015088
_cell_angle_alpha   59.36199629
_cell_angle_beta   90.00000000
_cell_angle_gamma   90.00000000
_symmetry_Int_Tables_number   1
_chemical_formula_structural   Te6RuBr8
_chemical_formula_sum   'Te24 Ru4 Br32'
_cell_volume   2182.17130693
_cell_formula_units_Z   4
loop_
 _symmetry_equiv_pos_site_id
 _symmetry_equiv_pos_as_xyz
  1  'x, y, z'
loop_
 _atom_site_type_symbol
 _atom_site_label
 _atom_site_symmetry_multiplicity
 _atom_site_fract_x
 _atom_site_fract_y
 _atom_site_fract_z
 _atom_site_occupancy
  Te  Te0  1  0.42272000  0.03512000  0.36216600  1
  Te  Te1  1  0.07728000  0.03512000  0.86216600  1
  Te  Te2  1  0.57728000  0.96488000  0.63783400  1
  Te  Te3  1  0.92272000  0.96488000  0.13783400  1
  Te  Te4  1  0.57711400  0.23025300  0.42946400  1
  Te  Te5  1  0.92288600  0.23025300  0.92946400  1
  Te  Te6  1  0.42288600  0.76974700  0.57053600  1
  Te  Te7  1  0.07711400  0.76974700  0.07053600  1
  Te  Te8  1  0.58984900  0.79988900  0.52823500  1
  Te  Te9  1  0.91015100  0.79988900  0.02823500  1
  Te  Te10  1  0.41015100  0.20011100  0.47176500  1
  Te  Te11  1  0.08984900  0.20011100  0.97176500  1
  Te  Te12  1  0.55998700  0.30424200  0.15103300  1
  Te  Te13  1  0.94001300  0.30424200  0.65103300  1
  Te  Te14  1  0.44001300  0.69575800  0.84896700  1
  Te  Te15  1  0.05998700  0.69575800  0.34896700  1
  Te  Te16  1  0.73243100  0.06140700  0.32336500  1
  Te  Te17  1  0.76756900  0.06140700  0.82336500  1
  Te  Te18  1  0.26756900  0.93859300  0.67663500  1
  Te  Te19  1  0.23243100  0.93859300  0.17663500  1
  Te  Te20  1  0.57836900  0.88405300  0.25070700  1
  Te  Te21  1  0.92163100  0.88405300  0.75070700  1
  Te  Te22  1  0.42163100  0.11594700  0.74929300  1
  Te  Te23  1  0.07836900  0.11594700  0.24929300  1
  Ru  Ru24  1  0.57802500  0.05535700  0.33914200  1
  Ru  Ru25  1  0.92197500  0.05535700  0.83914200  1
  Ru  Ru26  1  0.42197500  0.94464300  0.66085800  1
  Ru  Ru27  1  0.07802500  0.94464300  0.16085800  1
  Br  Br28  1  0.41278000  0.38000900  0.16805500  1
  Br  Br29  1  0.08722000  0.38000900  0.66805500  1
  Br  Br30  1  0.58722000  0.61999100  0.83194500  1
  Br  Br31  1  0.91278000  0.61999100  0.33194500  1
  Br  Br32  1  0.61174700  0.54049800  0.16418700  1
  Br  Br33  1  0.88825300  0.54049800  0.66418700  1
  Br  Br34  1  0.38825300  0.45950200  0.83581300  1
  Br  Br35  1  0.11174700  0.45950200  0.33581300  1
  Br  Br36  1  0.71920200  0.23325900  0.10555200  1
  Br  Br37  1  0.78079800  0.23325900  0.60555200  1
  Br  Br38  1  0.28079800  0.76674100  0.89444800  1
  Br  Br39  1  0.21920200  0.76674100  0.39444800  1
  Br  Br40  1  0.78522000  0.30782800  0.32002800  1
  Br  Br41  1  0.71478000  0.30782800  0.82002800  1
  Br  Br42  1  0.21478000  0.69217200  0.67997200  1
  Br  Br43  1  0.28522000  0.69217200  0.17997200  1
  Br  Br44  1  0.75911800  0.89068100  0.53130600  1
  Br  Br45  1  0.74088200  0.89068100  0.03130600  1
  Br  Br46  1  0.24088200  0.10931900  0.46869400  1
  Br  Br47  1  0.25911800  0.10931900  0.96869400  1
  Br  Br48  1  0.70028100  0.69761700  0.36636100  1
  Br  Br49  1  0.79971900  0.69761700  0.86636100  1
  Br  Br50  1  0.29971900  0.30238300  0.63363900  1
  Br  Br51  1  0.20028100  0.30238300  0.13363900  1
  Br  Br52  1  0.47225800  0.67334900  0.35282300  1
  Br  Br53  1  0.02774200  0.67334900  0.85282300  1
  Br  Br54  1  0.52774200  0.32665100  0.64717700  1
  Br  Br55  1  0.97225800  0.32665100  0.14717700  1
  Br  Br56  1  0.47220800  0.08191000  0.10068900  1
  Br  Br57  1  0.02779200  0.08191000  0.60068900  1
  Br  Br58  1  0.52779200  0.91809000  0.89931100  1
  Br  Br59  1  0.97220800  0.91809000  0.39931100  1
