# generated using pymatgen
data_SmUTe6
_symmetry_space_group_name_H-M   'P 1'
_cell_length_a   12.97490403
_cell_length_b   12.97490403
_cell_length_c   4.39323400
_cell_angle_alpha   90.00000000
_cell_angle_beta   90.00000000
_cell_angle_gamma   160.60776396
_symmetry_Int_Tables_number   1
_chemical_formula_structural   SmUTe6
_chemical_formula_sum   'Sm1 U1 Te6'
_cell_volume   245.56943273
_cell_formula_units_Z   1
loop_
 _symmetry_equiv_pos_site_id
 _symmetry_equiv_pos_as_xyz
  1  'x, y, z'
loop_
 _atom_site_type_symbol
 _atom_site_label
 _atom_site_symmetry_multiplicity
 _atom_site_fract_x
 _atom_site_fract_y
 _atom_site_fract_z
 _atom_site_occupancy
  Sm  Sm0  1  0.83204700  0.16795300  0.00000000  1
  U  U1  1  0.16543400  0.83456600  0.50000000  1
  Te  Te2  1  0.42929000  0.57071000  0.00000000  1
  Te  Te3  1  0.57500800  0.42499200  0.50000000  1
  Te  Te4  1  0.70192100  0.29807900  0.00000000  1
  Te  Te5  1  0.29176800  0.70823200  0.50000000  1
  Te  Te6  1  0.07498300  0.92501700  0.00000000  1
  Te  Te7  1  0.92955000  0.07045000  0.50000000  1
