# generated using pymatgen
data_CaMoO3
_symmetry_space_group_name_H-M   'P 1'
_cell_length_a   5.52575222
_cell_length_b   5.70338577
_cell_length_c   7.98666736
_cell_angle_alpha   90.00000000
_cell_angle_beta   90.00000000
_cell_angle_gamma   90.00000000
_symmetry_Int_Tables_number   1
_chemical_formula_structural   CaMoO3
_chemical_formula_sum   'Ca4 Mo4 O12'
_cell_volume   251.70378787
_cell_formula_units_Z   4
loop_
 _symmetry_equiv_pos_site_id
 _symmetry_equiv_pos_as_xyz
  1  'x, y, z'
loop_
 _atom_site_type_symbol
 _atom_site_label
 _atom_site_symmetry_multiplicity
 _atom_site_fract_x
 _atom_site_fract_y
 _atom_site_fract_z
 _atom_site_occupancy
  O  O0  1  0.69300591  0.29565422  0.44642352  1
  O  O1  1  0.19300638  0.20434530  0.55357647  1
  O  O2  1  0.80699267  0.79565550  0.05357583  1
  O  O3  1  0.30699314  0.70434482  0.94642415  1
  O  O4  1  0.30699314  0.70434482  0.55357647  1
  O  O5  1  0.80699267  0.79565550  0.44642352  1
  O  O6  1  0.19300638  0.20434530  0.94642415  1
  O  O7  1  0.69300591  0.29565422  0.05357583  1
  O  O8  1  0.09942217  0.45686115  0.24999968  1
  O  O9  1  0.59942352  0.04313837  0.75000031  1
  O  O10  1  0.90057689  0.54313789  0.75000031  1
  O  O11  1  0.40057736  0.95686067  0.24999968  1
  Ca  Ca12  1  0.99059032  0.04741271  0.24999968  1
  Ca  Ca13  1  0.49059079  0.45258681  0.75000031  1
  Ca  Ca14  1  0.50941009  0.54741223  0.24999968  1
  Ca  Ca15  1  0.00940874  0.95258810  0.75000031  1
  Mo  Mo16  1  0.49999953  0.00000000  0.00000000  1
  Mo  Mo17  1  0.00000000  0.49999952  0.00000000  1
  Mo  Mo18  1  0.00000000  0.49999952  0.50000063  1
  Mo  Mo19  1  0.49999953  0.00000000  0.50000063  1
