# generated using pymatgen
data_FeH5CN(ClO)2
_symmetry_space_group_name_H-M   'P 1'
_cell_length_a   6.93238632
_cell_length_b   6.98146663
_cell_length_c   13.53936814
_cell_angle_alpha   78.53133340
_cell_angle_beta   103.60211973
_cell_angle_gamma   98.78883423
_symmetry_Int_Tables_number   1
_chemical_formula_structural   FeH5CN(ClO)2
_chemical_formula_sum   'Fe4 H20 C4 N4 Cl8 O8'
_cell_volume   620.30639926
_cell_formula_units_Z   4
loop_
 _symmetry_equiv_pos_site_id
 _symmetry_equiv_pos_as_xyz
  1  'x, y, z'
loop_
 _atom_site_type_symbol
 _atom_site_label
 _atom_site_symmetry_multiplicity
 _atom_site_fract_x
 _atom_site_fract_y
 _atom_site_fract_z
 _atom_site_occupancy
  Fe  Fe0  1  0.49996700  0.50001500  0.50001200  1
  Fe  Fe1  1  0.00000800  0.99990700  0.00004400  1
  Fe  Fe2  1  0.49999900  0.99991100  0.00005900  1
  Fe  Fe3  1  0.99989600  0.50005000  0.49994100  1
  H  H4  1  0.24943800  0.50737400  0.16410000  1
  H  H5  1  0.25027700  0.00757900  0.66405700  1
  H  H6  1  0.75003600  0.99252800  0.33592400  1
  H  H7  1  0.75054200  0.49227000  0.83599300  1
  H  H8  1  0.26887700  0.12741700  0.36051000  1
  H  H9  1  0.26909200  0.62743700  0.86044500  1
  H  H10  1  0.23103600  0.02319400  0.25601100  1
  H  H11  1  0.23134700  0.52323500  0.75595200  1
  H  H12  1  0.73091200  0.37264900  0.13950500  1
  H  H13  1  0.73112000  0.87269500  0.63946000  1
  H  H14  1  0.76865400  0.47685000  0.24402200  1
  H  H15  1  0.76896300  0.97694300  0.74395900  1
  H  H16  1  0.37593600  0.91879600  0.36713400  1
  H  H17  1  0.37602400  0.41871900  0.86712200  1
  H  H18  1  0.12404200  0.90853900  0.35722400  1
  H  H19  1  0.12413800  0.40866500  0.85711600  1
  H  H20  1  0.62397300  0.58134300  0.13284500  1
  H  H21  1  0.62406800  0.08135800  0.63282000  1
  H  H22  1  0.87587700  0.59140700  0.14286400  1
  H  H23  1  0.87595300  0.09154000  0.64275200  1
  C  C24  1  0.24963400  0.65399300  0.11530500  1
  C  C25  1  0.25019800  0.15422300  0.61529200  1
  C  C26  1  0.74989400  0.84586100  0.38466200  1
  C  C27  1  0.75036500  0.34566300  0.88483200  1
  N  N28  1  0.24993900  0.99392500  0.33541700  1
  N  N29  1  0.25014000  0.49396100  0.83533600  1
  N  N30  1  0.74986500  0.50610400  0.16463600  1
  N  N31  1  0.75002200  0.00618700  0.66455300  1
  Cl  Cl32  1  0.31874400  0.17683100  0.09086800  1
  Cl  Cl33  1  0.31864300  0.67679900  0.59088900  1
  Cl  Cl34  1  0.18134500  0.45223000  0.36600500  1
  Cl  Cl35  1  0.18138000  0.95231700  0.86612200  1
  Cl  Cl36  1  0.68121900  0.32323500  0.40902900  1
  Cl  Cl37  1  0.68126500  0.82316900  0.90920000  1
  Cl  Cl38  1  0.81866500  0.04765500  0.13392900  1
  Cl  Cl39  1  0.81860200  0.54783200  0.63390100  1
  O  O40  1  0.41256700  0.72750200  0.08811300  1
  O  O41  1  0.41302200  0.22793000  0.58803300  1
  O  O42  1  0.08687600  0.73160300  0.09219000  1
  O  O43  1  0.08730400  0.23162200  0.59227300  1
  O  O44  1  0.58691100  0.77244800  0.41181400  1
  O  O45  1  0.58743200  0.27221400  0.91202700  1
  O  O46  1  0.91262400  0.76814300  0.40775800  1
  O  O47  1  0.91316800  0.26813000  0.90794300  1
