# generated using pymatgen
data_YZrFe4
_symmetry_space_group_name_H-M   'P 1'
_cell_length_a   5.09131166
_cell_length_b   5.09131166
_cell_length_c   5.09131166
_cell_angle_alpha   60.00000000
_cell_angle_beta   60.00000000
_cell_angle_gamma   60.00000000
_symmetry_Int_Tables_number   1
_chemical_formula_structural   YZrFe4
_chemical_formula_sum   'Y1 Zr1 Fe4'
_cell_volume   93.31985398
_cell_formula_units_Z   1
loop_
 _symmetry_equiv_pos_site_id
 _symmetry_equiv_pos_as_xyz
  1  'x, y, z'
loop_
 _atom_site_type_symbol
 _atom_site_label
 _atom_site_symmetry_multiplicity
 _atom_site_fract_x
 _atom_site_fract_y
 _atom_site_fract_z
 _atom_site_occupancy
  Y  Y0  1  0.25000000  0.25000000  0.25000000  1
  Zr  Zr1  1  0.00000000  0.00000000  0.00000000  1
  Fe  Fe2  1  0.62520300  0.62520300  0.12439200  1
  Fe  Fe3  1  0.62520300  0.12439200  0.62520300  1
  Fe  Fe4  1  0.12439200  0.62520300  0.62520300  1
  Fe  Fe5  1  0.62520300  0.62520300  0.62520300  1
