# generated using pymatgen
data_Cs2TeS3
_symmetry_space_group_name_H-M   'P 1'
_cell_length_a   13.04306200
_cell_length_b   10.28482400
_cell_length_c   17.64484534
_cell_angle_alpha   55.49756279
_cell_angle_beta   90.00000000
_cell_angle_gamma   90.00000000
_symmetry_Int_Tables_number   1
_chemical_formula_structural   Cs2TeS3
_chemical_formula_sum   'Cs16 Te8 S24'
_cell_volume   1950.63178572
_cell_formula_units_Z   8
loop_
 _symmetry_equiv_pos_site_id
 _symmetry_equiv_pos_as_xyz
  1  'x, y, z'
loop_
 _atom_site_type_symbol
 _atom_site_label
 _atom_site_symmetry_multiplicity
 _atom_site_fract_x
 _atom_site_fract_y
 _atom_site_fract_z
 _atom_site_occupancy
  Cs  Cs0  1  0.91238500  0.69694600  0.87669200  1
  Cs  Cs1  1  0.58761500  0.69694600  0.37669200  1
  Cs  Cs2  1  0.08761500  0.30305400  0.12330800  1
  Cs  Cs3  1  0.41238500  0.30305400  0.62330800  1
  Cs  Cs4  1  0.72757000  0.87762500  0.08402200  1
  Cs  Cs5  1  0.77243000  0.87762500  0.58402200  1
  Cs  Cs6  1  0.27243000  0.12237500  0.91597800  1
  Cs  Cs7  1  0.22757000  0.12237500  0.41597800  1
  Cs  Cs8  1  0.85093900  0.38069100  0.59880700  1
  Cs  Cs9  1  0.64906100  0.38069100  0.09880700  1
  Cs  Cs10  1  0.14906100  0.61930900  0.40119300  1
  Cs  Cs11  1  0.35093900  0.61930900  0.90119300  1
  Cs  Cs12  1  0.63386500  0.33163000  0.84855500  1
  Cs  Cs13  1  0.86613500  0.33163000  0.34855500  1
  Cs  Cs14  1  0.36613500  0.66837000  0.15144500  1
  Cs  Cs15  1  0.13386500  0.66837000  0.65144500  1
  Te  Te16  1  0.96424600  0.29463600  0.88526900  1
  Te  Te17  1  0.53575400  0.29463600  0.38526900  1
  Te  Te18  1  0.03575400  0.70536400  0.11473100  1
  Te  Te19  1  0.46424600  0.70536400  0.61473100  1
  Te  Te20  1  0.60965300  0.94949100  0.80447700  1
  Te  Te21  1  0.89034700  0.94949100  0.30447700  1
  Te  Te22  1  0.39034700  0.05050900  0.19552300  1
  Te  Te23  1  0.10965300  0.05050900  0.69552300  1
  S  S24  1  0.88198500  0.50279100  0.75096700  1
  S  S25  1  0.61801500  0.50279100  0.25096700  1
  S  S26  1  0.11801500  0.49720900  0.24903300  1
  S  S27  1  0.38198500  0.49720900  0.74903300  1
  S  S28  1  0.88887600  0.57837700  0.10618600  1
  S  S29  1  0.61112400  0.57837700  0.60618600  1
  S  S30  1  0.11112400  0.42162300  0.89381400  1
  S  S31  1  0.38887600  0.42162300  0.39381400  1
  S  S32  1  0.64201700  0.25083400  0.50661600  1
  S  S33  1  0.85798300  0.25083400  0.00661600  1
  S  S34  1  0.35798300  0.74916600  0.49338400  1
  S  S35  1  0.14201700  0.74916600  0.99338400  1
  S  S36  1  0.64019600  0.69798000  0.83364300  1
  S  S37  1  0.85980400  0.69798000  0.33364300  1
  S  S38  1  0.35980400  0.30202000  0.16635700  1
  S  S39  1  0.14019600  0.30202000  0.66635700  1
  S  S40  1  0.51000000  0.90041900  0.93039600  1
  S  S41  1  0.99000000  0.90041900  0.43039600  1
  S  S42  1  0.49000000  0.09958100  0.06960400  1
  S  S43  1  0.01000000  0.09958100  0.56960400  1
  S  S44  1  0.76840900  0.03681800  0.82487000  1
  S  S45  1  0.73159100  0.03681800  0.32487000  1
  S  S46  1  0.23159100  0.96318200  0.17513000  1
  S  S47  1  0.26840900  0.96318200  0.67513000  1
