# generated using pymatgen
data_Gd4Co3
_symmetry_space_group_name_H-M   'P 1'
_cell_length_a   4.07859120
_cell_length_b   11.32855596
_cell_length_c   11.32702345
_cell_angle_alpha   119.99733402
_cell_angle_beta   89.98457977
_cell_angle_gamma   90.03677890
_symmetry_Int_Tables_number   1
_chemical_formula_structural   Gd4Co3
_chemical_formula_sum   'Gd12 Co9'
_cell_volume   453.25514176
_cell_formula_units_Z   3
loop_
 _symmetry_equiv_pos_site_id
 _symmetry_equiv_pos_as_xyz
  1  'x, y, z'
loop_
 _atom_site_type_symbol
 _atom_site_label
 _atom_site_symmetry_multiplicity
 _atom_site_fract_x
 _atom_site_fract_y
 _atom_site_fract_z
 _atom_site_occupancy
  Gd  Gd0  1  0.74917200  0.61987300  0.48395200  1
  Gd  Gd1  1  0.74959000  0.51602000  0.13676500  1
  Gd  Gd2  1  0.74946400  0.86293100  0.37980700  1
  Gd  Gd3  1  0.25082800  0.38012600  0.51604800  1
  Gd  Gd4  1  0.25041000  0.48398000  0.86323500  1
  Gd  Gd5  1  0.25053600  0.13706900  0.62019300  1
  Gd  Gd6  1  0.75015100  0.77590400  0.01700300  1
  Gd  Gd7  1  0.75055600  0.98128700  0.75773000  1
  Gd  Gd8  1  0.75082800  0.24296300  0.22609500  1
  Gd  Gd9  1  0.24984900  0.22409600  0.98299700  1
  Gd  Gd10  1  0.24944400  0.01871300  0.24227000  1
  Gd  Gd11  1  0.24917200  0.75703700  0.77390500  1
  Co  Co12  1  0.74627000  0.28173400  0.84537900  1
  Co  Co13  1  0.74714300  0.15530300  0.43683900  1
  Co  Co14  1  0.74688700  0.56399700  0.71585600  1
  Co  Co15  1  0.25373000  0.71826600  0.15462100  1
  Co  Co16  1  0.25285700  0.84469700  0.56316100  1
  Co  Co17  1  0.25311300  0.43600300  0.28414400  1
  Co  Co18  1  0.75329300  0.33393400  0.66657100  1
  Co  Co19  1  0.24670700  0.66606600  0.33342900  1
  Co  Co20  1  0.50000000  0.00000000  0.00000000  1
