# generated using pymatgen
data_BaNa2(Ge4O9)2
_symmetry_space_group_name_H-M   'P 1'
_cell_length_a   11.71300824
_cell_length_b   11.71300824
_cell_length_c   19.55809639
_cell_angle_alpha   90.00000000
_cell_angle_beta   90.00000000
_cell_angle_gamma   120.00000329
_symmetry_Int_Tables_number   1
_chemical_formula_structural   BaNa2(Ge4O9)2
_chemical_formula_sum   'Ba6 Na12 Ge48 O108'
_cell_volume   2323.77511843
_cell_formula_units_Z   6
loop_
 _symmetry_equiv_pos_site_id
 _symmetry_equiv_pos_as_xyz
  1  'x, y, z'
loop_
 _atom_site_type_symbol
 _atom_site_label
 _atom_site_symmetry_multiplicity
 _atom_site_fract_x
 _atom_site_fract_y
 _atom_site_fract_z
 _atom_site_occupancy
  Ba  Ba0  1  0.66577602  0.66577602  0.75000000  1
  Ba  Ba1  1  0.33422398  0.33422398  0.25000000  1
  Ba  Ba2  1  0.00000000  0.33422398  0.75000000  1
  Ba  Ba3  1  1.00000000  0.66577602  0.25000000  1
  Ba  Ba4  1  0.33422398  0.00000000  0.75000000  1
  Ba  Ba5  1  0.66577602  1.00000000  0.25000000  1
  Na  Na6  1  0.99301394  0.32972525  0.96337620  1
  Na  Na7  1  0.00698606  0.67027475  0.03662380  1
  Na  Na8  1  0.33671131  0.00698606  0.96337620  1
  Na  Na9  1  0.66328869  0.67027475  0.53662380  1
  Na  Na10  1  0.66328869  0.99301394  0.03662380  1
  Na  Na11  1  0.33671131  0.32972525  0.46337620  1
  Na  Na12  1  0.67027475  0.66328869  0.96337620  1
  Na  Na13  1  0.32972525  0.99301394  0.53662380  1
  Na  Na14  1  0.32972525  0.33671131  0.03662380  1
  Na  Na15  1  0.67027475  0.00698606  0.46337620  1
  Na  Na16  1  0.00698606  0.33671131  0.53662380  1
  Na  Na17  1  0.99301394  0.66328869  0.46337620  1
  Ge  Ge18  1  0.66666700  0.33333300  0.97725760  1
  Ge  Ge19  1  0.33333300  0.66666700  0.02274240  1
  Ge  Ge20  1  0.33333300  0.66666700  0.52274240  1
  Ge  Ge21  1  0.66666700  0.33333300  0.47725760  1
  Ge  Ge22  1  0.66666700  0.33333300  0.72717584  1
  Ge  Ge23  1  0.33333300  0.66666700  0.27282416  1
  Ge  Ge24  1  0.33333300  0.66666700  0.77282416  1
  Ge  Ge25  1  0.66666700  0.33333300  0.22717584  1
  Ge  Ge26  1  -0.00000000  -0.00000000  -0.00000000  1
  Ge  Ge27  1  -0.00000000  -0.00000000  0.50000000  1
  Ge  Ge28  1  0.82634614  0.00385349  0.87433646  1
  Ge  Ge29  1  0.17365386  0.99614651  0.12566354  1
  Ge  Ge30  1  0.17750735  0.17365386  0.87433646  1
  Ge  Ge31  1  0.82249265  0.99614651  0.62566354  1
  Ge  Ge32  1  0.82249265  0.82634614  0.12566354  1
  Ge  Ge33  1  0.17750735  0.00385349  0.37433646  1
  Ge  Ge34  1  0.99614651  0.82249265  0.87433646  1
  Ge  Ge35  1  0.00385349  0.82634614  0.62566354  1
  Ge  Ge36  1  0.00385349  0.17750735  0.12566354  1
  Ge  Ge37  1  0.99614651  0.17365386  0.37433646  1
  Ge  Ge38  1  0.17365386  0.17750735  0.62566354  1
  Ge  Ge39  1  0.82634614  0.82249265  0.37433646  1
  Ge  Ge40  1  0.66110711  0.14590557  0.85196900  1
  Ge  Ge41  1  0.33889289  0.85409443  0.14803100  1
  Ge  Ge42  1  0.48479845  0.33889289  0.85196900  1
  Ge  Ge43  1  0.51520155  0.85409443  0.64803100  1
  Ge  Ge44  1  0.51520155  0.66110711  0.14803100  1
  Ge  Ge45  1  0.48479845  0.14590557  0.35196900  1
  Ge  Ge46  1  0.85409443  0.51520155  0.85196900  1
  Ge  Ge47  1  0.14590557  0.66110711  0.64803100  1
  Ge  Ge48  1  0.14590557  0.48479845  0.14803100  1
  Ge  Ge49  1  0.85409443  0.33889289  0.35196900  1
  Ge  Ge50  1  0.33889289  0.48479845  0.64803100  1
  Ge  Ge51  1  0.66110711  0.51520155  0.35196900  1
  Ge  Ge52  1  0.51119965  0.84618577  0.89336249  1
  Ge  Ge53  1  0.48880035  0.15381423  0.10663751  1
  Ge  Ge54  1  0.33498613  0.48880035  0.89336249  1
  Ge  Ge55  1  0.66501387  0.15381423  0.60663751  1
  Ge  Ge56  1  0.66501387  0.51119965  0.10663751  1
  Ge  Ge57  1  0.33498613  0.84618577  0.39336249  1
  Ge  Ge58  1  0.15381423  0.66501387  0.89336249  1
  Ge  Ge59  1  0.84618577  0.51119965  0.60663751  1
  Ge  Ge60  1  0.84618577  0.33498613  0.10663751  1
  Ge  Ge61  1  0.15381423  0.48880035  0.39336249  1
  Ge  Ge62  1  0.48880035  0.33498613  0.60663751  1
  Ge  Ge63  1  0.51119965  0.66501387  0.39336249  1
  Ge  Ge64  1  -0.00000000  -0.00000000  0.75000000  1
  Ge  Ge65  1  -0.00000000  -0.00000000  0.25000000  1
  O  O66  1  0.73533510  0.24581389  0.92340775  1
  O  O67  1  0.26466490  0.75418611  0.07659225  1
  O  O68  1  0.51047879  0.26466490  0.92340775  1
  O  O69  1  0.48952121  0.75418611  0.57659225  1
  O  O70  1  0.48952121  0.73533510  0.07659225  1
  O  O71  1  0.51047879  0.24581389  0.42340775  1
  O  O72  1  0.75418611  0.48952121  0.92340775  1
  O  O73  1  0.24581389  0.73533510  0.57659225  1
  O  O74  1  0.24581389  0.51047879  0.07659225  1
  O  O75  1  0.75418611  0.26466490  0.42340775  1
  O  O76  1  0.26466490  0.51047879  0.57659225  1
  O  O77  1  0.73533510  0.48952121  0.42340775  1
  O  O78  1  0.67623367  0.89367469  0.92089104  1
  O  O79  1  0.32376633  0.10632531  0.07910896  1
  O  O80  1  0.21744102  0.32376633  0.92089104  1
  O  O81  1  0.78255898  0.10632531  0.57910896  1
  O  O82  1  0.78255898  0.67623367  0.07910896  1
  O  O83  1  0.21744102  0.89367469  0.42089104  1
  O  O84  1  0.10632531  0.78255898  0.92089104  1
  O  O85  1  0.89367469  0.67623367  0.57910896  1
  O  O86  1  0.89367469  0.21744102  0.07910896  1
  O  O87  1  0.10632531  0.32376633  0.42089104  1
  O  O88  1  0.32376633  0.21744102  0.57910896  1
  O  O89  1  0.67623367  0.78255898  0.42089104  1
  O  O90  1  0.81798391  0.40665976  0.78260910  1
  O  O91  1  0.18201609  0.59334024  0.21739090  1
  O  O92  1  0.58867586  0.18201609  0.78260910  1
  O  O93  1  0.41132414  0.59334024  0.71739090  1
  O  O94  1  0.41132414  0.81798391  0.21739090  1
  O  O95  1  0.58867586  0.40665976  0.28260910  1
  O  O96  1  0.59334024  0.41132414  0.78260910  1
  O  O97  1  0.40665976  0.81798391  0.71739090  1
  O  O98  1  0.40665976  0.58867586  0.21739090  1
  O  O99  1  0.59334024  0.18201609  0.28260910  1
  O  O100  1  0.18201609  0.58867586  0.71739090  1
  O  O101  1  0.81798391  0.41132414  0.28260910  1
  O  O102  1  0.93736187  0.09135108  0.94179894  1
  O  O103  1  0.06263813  0.90864892  0.05820106  1
  O  O104  1  0.15398921  0.06263813  0.94179894  1
  O  O105  1  0.84601079  0.90864892  0.55820106  1
  O  O106  1  0.84601079  0.93736187  0.05820106  1
  O  O107  1  0.15398921  0.09135108  0.44179894  1
  O  O108  1  0.90864892  0.84601079  0.94179894  1
  O  O109  1  0.09135108  0.93736187  0.55820106  1
  O  O110  1  0.09135108  0.15398921  0.05820106  1
  O  O111  1  0.90864892  0.06263813  0.44179894  1
  O  O112  1  0.06263813  0.15398921  0.55820106  1
  O  O113  1  0.93736187  0.84601079  0.44179894  1
  O  O114  1  0.79322423  0.11799244  0.82720638  1
  O  O115  1  0.20677577  0.88200756  0.17279362  1
  O  O116  1  0.32476820  0.20677577  0.82720638  1
  O  O117  1  0.67523180  0.88200756  0.67279362  1
  O  O118  1  0.67523180  0.79322423  0.17279362  1
  O  O119  1  0.32476820  0.11799244  0.32720638  1
  O  O120  1  0.88200756  0.67523180  0.82720638  1
  O  O121  1  0.11799244  0.79322423  0.67279362  1
  O  O122  1  0.11799244  0.32476820  0.17279362  1
  O  O123  1  0.88200756  0.20677577  0.32720638  1
  O  O124  1  0.20677577  0.32476820  0.67279362  1
  O  O125  1  0.79322423  0.67523180  0.32720638  1
  O  O126  1  0.47920244  0.48707405  0.86633782  1
  O  O127  1  0.52079756  0.51292595  0.13366218  1
  O  O128  1  0.00787161  0.52079756  0.86633782  1
  O  O129  1  0.99212839  0.51292595  0.63366218  1
  O  O130  1  0.99212839  0.47920244  0.13366218  1
  O  O131  1  0.00787161  0.48707405  0.36633782  1
  O  O132  1  0.51292595  0.99212839  0.86633782  1
  O  O133  1  0.48707405  0.47920244  0.63366218  1
  O  O134  1  0.48707405  0.00787161  0.13366218  1
  O  O135  1  0.51292595  0.52079756  0.36633782  1
  O  O136  1  0.52079756  0.00787161  0.63366218  1
  O  O137  1  0.47920244  0.99212839  0.36633782  1
  O  O138  1  0.84785501  0.91137017  0.80887455  1
  O  O139  1  0.15214499  0.08862983  0.19112545  1
  O  O140  1  0.06351517  0.15214499  0.80887455  1
  O  O141  1  0.93648483  0.08862983  0.69112545  1
  O  O142  1  0.93648483  0.84785501  0.19112545  1
  O  O143  1  0.06351517  0.91137017  0.30887455  1
  O  O144  1  0.08862983  0.93648483  0.80887455  1
  O  O145  1  0.91137017  0.84785501  0.69112545  1
  O  O146  1  0.91137017  0.06351517  0.19112545  1
  O  O147  1  0.08862983  0.15214499  0.30887455  1
  O  O148  1  0.15214499  0.06351517  0.69112545  1
  O  O149  1  0.84785501  0.93648483  0.30887455  1
  O  O150  1  0.40202507  0.57942506  0.96861900  1
  O  O151  1  0.59797493  0.42057494  0.03138100  1
  O  O152  1  0.17739999  0.59797493  0.96861900  1
  O  O153  1  0.82260001  0.42057494  0.53138100  1
  O  O154  1  0.82260001  0.40202507  0.03138100  1
  O  O155  1  0.17739999  0.57942506  0.46861900  1
  O  O156  1  0.42057494  0.82260001  0.96861900  1
  O  O157  1  0.57942506  0.40202507  0.53138100  1
  O  O158  1  0.57942506  0.17739999  0.03138100  1
  O  O159  1  0.42057494  0.59797493  0.46861900  1
  O  O160  1  0.59797493  0.17739999  0.53138100  1
  O  O161  1  0.40202507  0.82260001  0.46861900  1
  O  O162  1  0.48579011  0.72897481  0.82982202  1
  O  O163  1  0.51420989  0.27102519  0.17017798  1
  O  O164  1  0.24318470  0.51420989  0.82982202  1
  O  O165  1  0.75681530  0.27102519  0.67017798  1
  O  O166  1  0.75681530  0.48579011  0.17017798  1
  O  O167  1  0.24318470  0.72897481  0.32982202  1
  O  O168  1  0.27102519  0.75681530  0.82982202  1
  O  O169  1  0.72897481  0.48579011  0.67017798  1
  O  O170  1  0.72897481  0.24318470  0.17017798  1
  O  O171  1  0.27102519  0.51420989  0.32982202  1
  O  O172  1  0.51420989  0.24318470  0.67017798  1
  O  O173  1  0.48579011  0.75681530  0.32982202  1
