# generated using pymatgen
data_SrSi3Au
_symmetry_space_group_name_H-M   'P 1'
_cell_length_a   5.86681499
_cell_length_b   5.86681499
_cell_length_c   5.86681499
_cell_angle_alpha   135.29130092
_cell_angle_beta   135.29130092
_cell_angle_gamma   65.07791915
_symmetry_Int_Tables_number   1
_chemical_formula_structural   SrSi3Au
_chemical_formula_sum   'Sr1 Si3 Au1'
_cell_volume   98.50029463
_cell_formula_units_Z   1
loop_
 _symmetry_equiv_pos_site_id
 _symmetry_equiv_pos_as_xyz
  1  'x, y, z'
loop_
 _atom_site_type_symbol
 _atom_site_label
 _atom_site_symmetry_multiplicity
 _atom_site_fract_x
 _atom_site_fract_y
 _atom_site_fract_z
 _atom_site_occupancy
  Sr  Sr0  1  0.99921700  0.99921700  0.00000000  1
  Si  Si1  1  0.37674600  0.37674600  0.00000000  1
  Si  Si2  1  0.25652700  0.75652700  0.50000000  1
  Si  Si3  1  0.75652700  0.25652700  0.50000000  1
  Au  Au4  1  0.63348300  0.63348300  0.00000000  1
