# generated using pymatgen
data_Be3Cu
_symmetry_space_group_name_H-M   'P 1'
_cell_length_a   7.21262244
_cell_length_b   7.21262244
_cell_length_c   7.21262307
_cell_angle_alpha   33.60308431
_cell_angle_beta   33.60308431
_cell_angle_gamma   33.60308313
_symmetry_Int_Tables_number   1
_chemical_formula_structural   Be3Cu
_chemical_formula_sum   'Be9 Cu3'
_cell_volume   102.37423875
_cell_formula_units_Z   3
loop_
 _symmetry_equiv_pos_site_id
 _symmetry_equiv_pos_as_xyz
  1  'x, y, z'
loop_
 _atom_site_type_symbol
 _atom_site_label
 _atom_site_symmetry_multiplicity
 _atom_site_fract_x
 _atom_site_fract_y
 _atom_site_fract_z
 _atom_site_occupancy
  Be  Be0  1  0.06315100  0.56279500  0.56279500  1
  Be  Be1  1  0.56191400  0.06210100  0.06210100  1
  Be  Be2  1  0.56279500  0.56279500  0.06315100  1
  Be  Be3  1  0.06210100  0.06210100  0.56191400  1
  Be  Be4  1  0.81243700  0.81243700  0.81243700  1
  Be  Be5  1  0.31260500  0.31260500  0.31260500  1
  Be  Be6  1  0.56279500  0.06315100  0.56279500  1
  Be  Be7  1  0.06210100  0.56191400  0.06210100  1
  Be  Be8  1  0.12492500  0.12492500  0.12492500  1
  Cu  Cu9  1  0.62480800  0.62480800  0.62480800  1
  Cu  Cu10  1  0.00270900  0.00270900  0.00270900  1
  Cu  Cu11  1  0.49765800  0.49765800  0.49765800  1
