# generated using pymatgen
data_Dy7(TePd)2
_symmetry_space_group_name_H-M   'P 1'
_cell_length_a   9.47980260
_cell_length_b   9.47980260
_cell_length_c   9.47980260
_cell_angle_alpha   155.88889964
_cell_angle_beta   118.41990184
_cell_angle_gamma   67.12731273
_symmetry_Int_Tables_number   1
_chemical_formula_structural   Dy7(TePd)2
_chemical_formula_sum   'Dy7 Te2 Pd2'
_cell_volume   303.58452205
_cell_formula_units_Z   1
loop_
 _symmetry_equiv_pos_site_id
 _symmetry_equiv_pos_as_xyz
  1  'x, y, z'
loop_
 _atom_site_type_symbol
 _atom_site_label
 _atom_site_symmetry_multiplicity
 _atom_site_fract_x
 _atom_site_fract_y
 _atom_site_fract_z
 _atom_site_occupancy
  Dy  Dy0  1  0.62271900  0.35718100  0.26553800  1
  Dy  Dy1  1  0.90835700  0.64281900  0.26553800  1
  Dy  Dy2  1  0.00060000  0.00000000  0.00060000  1
  Dy  Dy3  1  0.54417600  0.12840600  0.41577000  1
  Dy  Dy4  1  0.28736400  0.87159400  0.41577000  1
  Dy  Dy5  1  0.93975500  0.31661400  0.62314100  1
  Dy  Dy6  1  0.30652700  0.68338600  0.62314100  1
  Te  Te7  1  0.26247200  0.50000000  0.76247200  1
  Te  Te8  1  0.66295200  0.00000000  0.66295200  1
  Pd  Pd9  1  0.16536600  0.23739700  0.92796900  1
  Pd  Pd10  1  0.69057200  0.76260300  0.92796900  1
