# generated using pymatgen
data_Dy5SbPt2
_symmetry_space_group_name_H-M   'P 1'
_cell_length_a   8.76145885
_cell_length_b   8.76145885
_cell_length_c   8.76145885
_cell_angle_alpha   127.55879331
_cell_angle_beta   127.55879331
_cell_angle_gamma   77.34086349
_symmetry_Int_Tables_number   1
_chemical_formula_structural   Dy5SbPt2
_chemical_formula_sum   'Dy10 Sb2 Pt4'
_cell_volume   410.02497893
_cell_formula_units_Z   2
loop_
 _symmetry_equiv_pos_site_id
 _symmetry_equiv_pos_as_xyz
  1  'x, y, z'
loop_
 _atom_site_type_symbol
 _atom_site_label
 _atom_site_symmetry_multiplicity
 _atom_site_fract_x
 _atom_site_fract_y
 _atom_site_fract_z
 _atom_site_occupancy
  Dy  Dy0  1  0.00000000  0.00000000  0.00000000  1
  Dy  Dy1  1  0.50000000  0.50000000  0.00000000  1
  Dy  Dy2  1  0.79633700  0.29633700  0.81586100  1
  Dy  Dy3  1  0.20366300  0.70366300  0.18413900  1
  Dy  Dy4  1  0.48047600  0.98047600  0.18413900  1
  Dy  Dy5  1  0.29633700  0.48047600  0.50000000  1
  Dy  Dy6  1  0.01952400  0.20366300  0.50000000  1
  Dy  Dy7  1  0.51952400  0.01952400  0.81586100  1
  Dy  Dy8  1  0.70366300  0.51952400  0.50000000  1
  Dy  Dy9  1  0.98047600  0.79633700  0.50000000  1
  Sb  Sb10  1  0.25000000  0.25000000  0.00000000  1
  Sb  Sb11  1  0.75000000  0.75000000  0.00000000  1
  Pt  Pt12  1  0.13768700  0.63768700  0.77537500  1
  Pt  Pt13  1  0.86231300  0.36231300  0.22462500  1
  Pt  Pt14  1  0.63768700  0.86231300  0.50000000  1
  Pt  Pt15  1  0.36231300  0.13768700  0.50000000  1
