# generated using pymatgen
data_CeTl2(PO3)5
_symmetry_space_group_name_H-M   'P 1'
_cell_length_a   7.38236765
_cell_length_b   7.38236765
_cell_length_c   13.50352191
_cell_angle_alpha   89.49487050
_cell_angle_beta   89.49487050
_cell_angle_gamma   107.80528543
_symmetry_Int_Tables_number   1
_chemical_formula_structural   CeTl2(PO3)5
_chemical_formula_sum   'Ce2 Tl4 P10 O30'
_cell_volume   700.60441933
_cell_formula_units_Z   2
loop_
 _symmetry_equiv_pos_site_id
 _symmetry_equiv_pos_as_xyz
  1  'x, y, z'
loop_
 _atom_site_type_symbol
 _atom_site_label
 _atom_site_symmetry_multiplicity
 _atom_site_fract_x
 _atom_site_fract_y
 _atom_site_fract_z
 _atom_site_occupancy
  Ce  Ce0  1  0.17600700  0.98543800  0.31037900  1
  Ce  Ce1  1  0.98543800  0.17600700  0.81037900  1
  Tl  Tl2  1  0.77569300  0.36517400  0.31680300  1
  Tl  Tl3  1  0.52906500  0.29187300  0.61316000  1
  Tl  Tl4  1  0.36517400  0.77569300  0.81680300  1
  Tl  Tl5  1  0.29187300  0.52906500  0.11316000  1
  P  P6  1  0.08729600  0.48019100  0.57461500  1
  P  P7  1  0.69928700  0.84918700  0.61845500  1
  P  P8  1  0.10985900  0.89424700  0.59103600  1
  P  P9  1  0.63173700  0.87156300  0.40045400  1
  P  P10  1  0.48019100  0.08729600  0.07461500  1
  P  P11  1  0.84918700  0.69928700  0.11845500  1
  P  P12  1  0.87156300  0.63173700  0.90045400  1
  P  P13  1  0.89424700  0.10985900  0.09103600  1
  P  P14  1  0.51999100  0.30613800  0.88900200  1
  P  P15  1  0.30613800  0.51999100  0.38900200  1
  O  O16  1  0.80764900  0.88486300  0.07720000  1
  O  O17  1  0.16823400  0.70316200  0.60296600  1
  O  O18  1  0.83495700  0.90681200  0.36891900  1
  O  O19  1  0.10273800  0.37304200  0.66761600  1
  O  O20  1  0.75091200  0.02307000  0.68316000  1
  O  O21  1  0.02307000  0.75091200  0.18316000  1
  O  O22  1  0.30089400  0.33686500  0.33736200  1
  O  O23  1  0.56539500  0.66840900  0.65886500  1
  O  O24  1  0.46673600  0.26149000  0.00448500  1
  O  O25  1  0.19139700  0.63965100  0.35016100  1
  O  O26  1  0.61660000  0.91255400  0.51719400  1
  O  O27  1  0.51432300  0.97832400  0.34976600  1
  O  O28  1  0.88486300  0.80764900  0.57720000  1
  O  O29  1  0.91255400  0.61660000  0.01719400  1
  O  O30  1  0.66840900  0.56539500  0.15886500  1
  O  O31  1  0.53026700  0.64252700  0.39291800  1
  O  O32  1  0.63965100  0.19139700  0.85016100  1
  O  O33  1  0.15529700  0.99670900  0.68815600  1
  O  O34  1  0.99819800  0.19661800  0.99752600  1
  O  O35  1  0.19661800  0.99819800  0.49752600  1
  O  O36  1  0.70316200  0.16823400  0.10296600  1
  O  O37  1  0.90578500  0.43174000  0.51903700  1
  O  O38  1  0.97832400  0.51432300  0.84976600  1
  O  O39  1  0.43174000  0.90578500  0.01903700  1
  O  O40  1  0.37304200  0.10273800  0.16761600  1
  O  O41  1  0.64252700  0.53026700  0.89291800  1
  O  O42  1  0.33686500  0.30089400  0.83736200  1
  O  O43  1  0.26149000  0.46673600  0.50448500  1
  O  O44  1  0.90681200  0.83495700  0.86891900  1
  O  O45  1  0.99670900  0.15529700  0.18815600  1
