# generated using pymatgen
data_BaMnP2O7
_symmetry_space_group_name_H-M   'P 1'
_cell_length_a   5.64543312
_cell_length_b   8.69709581
_cell_length_c   13.15204584
_cell_angle_alpha   90.00000000
_cell_angle_beta   90.37940267
_cell_angle_gamma   90.00000000
_symmetry_Int_Tables_number   1
_chemical_formula_structural   BaMnP2O7
_chemical_formula_sum   'Ba4 Mn4 P8 O28'
_cell_volume   645.73646737
_cell_formula_units_Z   4
loop_
 _symmetry_equiv_pos_site_id
 _symmetry_equiv_pos_as_xyz
  1  'x, y, z'
loop_
 _atom_site_type_symbol
 _atom_site_label
 _atom_site_symmetry_multiplicity
 _atom_site_fract_x
 _atom_site_fract_y
 _atom_site_fract_z
 _atom_site_occupancy
  O  O0  1  0.23564164  0.62719887  0.44757658  1
  O  O1  1  0.26435837  0.12719904  0.05242343  1
  O  O2  1  0.76435838  0.37280079  0.55242343  1
  O  O3  1  0.73564166  0.87280178  0.94757658  1
  O  O4  1  0.50044566  0.57738639  0.29507895  1
  O  O5  1  0.99955332  0.07738655  0.20492105  1
  O  O6  1  0.49955436  0.42261328  0.70492105  1
  O  O7  1  0.00044671  0.92261311  0.79507896  1
  O  O8  1  0.18347073  0.40781606  0.09737167  1
  O  O9  1  0.31652929  0.90781589  0.40262833  1
  O  O10  1  0.81652930  0.59218361  0.90262833  1
  O  O11  1  0.68347074  0.09218378  0.59737167  1
  O  O12  1  0.80390728  0.68432971  0.08714118  1
  O  O13  1  0.69609170  0.18432872  0.41285882  1
  O  O14  1  0.19609274  0.31567111  0.91285883  1
  O  O15  1  0.30390832  0.81567094  0.58714118  1
  O  O16  1  0.56177812  0.87543384  0.76679649  1
  O  O17  1  0.93822191  0.37543401  0.73320351  1
  O  O18  1  0.43822190  0.12456698  0.23320351  1
  O  O19  1  0.06177811  0.62456681  0.26679649  1
  O  O20  1  0.80807601  0.62084149  0.64869904  1
  O  O21  1  0.69192402  0.12084165  0.85130096  1
  O  O22  1  0.42047216  0.66936058  0.97967576  1
  O  O23  1  0.30807600  0.87915801  0.14869904  1
  O  O24  1  0.92047289  0.83063892  0.47967576  1
  O  O25  1  0.57952787  0.33063909  0.02032424  1
  O  O26  1  0.07952714  0.16936075  0.52032424  1
  O  O27  1  0.19192401  0.37915818  0.35130096  1
  P  P28  1  0.31050707  0.30520203  0.01916041  1
  P  P29  1  0.18949294  0.80520186  0.48083959  1
  P  P30  1  0.68949295  0.69479764  0.98083959  1
  P  P31  1  0.81050708  0.19479781  0.51916041  1
  P  P32  1  0.25175973  0.54874435  0.33584881  1
  P  P33  1  0.75175974  0.95125631  0.83584881  1
  P  P34  1  0.74824029  0.45125647  0.66415120  1
  P  P35  1  0.24824028  0.04874336  0.16415120  1
  Mn  Mn36  1  0.68349022  0.84097263  0.60734486  1
  Mn  Mn37  1  0.31650980  0.15902704  0.39265515  1
  Mn  Mn38  1  0.81650981  0.34097280  0.89265515  1
  Mn  Mn39  1  0.18349021  0.65902687  0.10734485  1
  Ba  Ba40  1  0.78171169  0.35464216  0.21937940  1
  Ba  Ba41  1  0.71828729  0.85464199  0.28062060  1
  Ba  Ba42  1  0.21828833  0.64535751  0.78062061  1
  Ba  Ba43  1  0.28171274  0.14535767  0.71937940  1
