# generated using pymatgen
data_CsVCuF6
_symmetry_space_group_name_H-M   'P 1'
_cell_length_a   7.50269354
_cell_length_b   7.23442928
_cell_length_c   7.61995662
_cell_angle_alpha   90.00000000
_cell_angle_beta   59.48162051
_cell_angle_gamma   118.82408791
_symmetry_Int_Tables_number   1
_chemical_formula_structural   CsVCuF6
_chemical_formula_sum   'Cs2 V2 Cu2 F12'
_cell_volume   295.27308189
_cell_formula_units_Z   2
loop_
 _symmetry_equiv_pos_site_id
 _symmetry_equiv_pos_as_xyz
  1  'x, y, z'
loop_
 _atom_site_type_symbol
 _atom_site_label
 _atom_site_symmetry_multiplicity
 _atom_site_fract_x
 _atom_site_fract_y
 _atom_site_fract_z
 _atom_site_occupancy
  Cs  Cs0  1  0.75687300  0.37843700  0.37156300  1
  Cs  Cs1  1  0.24312700  0.62156300  0.62843700  1
  V  V2  1  0.00000000  0.00000000  0.50000000  1
  V  V3  1  0.00000000  0.00000000  0.00000000  1
  Cu  Cu4  1  0.50000000  0.50000000  0.00000000  1
  Cu  Cu5  1  0.50000000  0.00000000  0.00000000  1
  F  F6  1  0.87535000  0.93767500  0.31232500  1
  F  F7  1  0.63261200  0.31630600  0.93369400  1
  F  F8  1  0.24353800  0.92885100  0.92474200  1
  F  F9  1  0.24353800  0.31468700  0.33172000  1
  F  F10  1  0.24353800  0.31468700  0.92474200  1
  F  F11  1  0.24353800  0.92885100  0.33172000  1
  F  F12  1  0.12465000  0.06232500  0.68767500  1
  F  F13  1  0.36738800  0.68369400  0.06630600  1
  F  F14  1  0.75646200  0.07114900  0.07525800  1
  F  F15  1  0.75646200  0.68531300  0.66828000  1
  F  F16  1  0.75646200  0.68531300  0.07525800  1
  F  F17  1  0.75646200  0.07114900  0.66828000  1
