# generated using pymatgen
data_Dy4Sb3
_symmetry_space_group_name_H-M   'P 1'
_cell_length_a   7.96572591
_cell_length_b   7.96572591
_cell_length_c   7.96572591
_cell_angle_alpha   109.47122063
_cell_angle_beta   109.47122063
_cell_angle_gamma   109.47122063
_symmetry_Int_Tables_number   1
_chemical_formula_structural   Dy4Sb3
_chemical_formula_sum   'Dy8 Sb6'
_cell_volume   389.09368854
_cell_formula_units_Z   2
loop_
 _symmetry_equiv_pos_site_id
 _symmetry_equiv_pos_as_xyz
  1  'x, y, z'
loop_
 _atom_site_type_symbol
 _atom_site_label
 _atom_site_symmetry_multiplicity
 _atom_site_fract_x
 _atom_site_fract_y
 _atom_site_fract_z
 _atom_site_occupancy
  Dy  Dy0  1  0.50000000  0.00000000  0.14448400  1
  Dy  Dy1  1  0.64448400  0.50000000  0.00000000  1
  Dy  Dy2  1  0.00000000  0.64448400  0.50000000  1
  Dy  Dy3  1  0.85551600  0.85551600  0.85551600  1
  Dy  Dy4  1  0.00000000  0.14448400  0.50000000  1
  Dy  Dy5  1  0.35551600  0.35551600  0.35551600  1
  Dy  Dy6  1  0.14448400  0.50000000  0.00000000  1
  Dy  Dy7  1  0.50000000  0.00000000  0.64448400  1
  Sb  Sb8  1  0.62500000  0.75000000  0.37500000  1
  Sb  Sb9  1  0.75000000  0.37500000  0.62500000  1
  Sb  Sb10  1  0.25000000  0.12500000  0.87500000  1
  Sb  Sb11  1  0.37500000  0.62500000  0.75000000  1
  Sb  Sb12  1  0.12500000  0.87500000  0.25000000  1
  Sb  Sb13  1  0.87500000  0.25000000  0.12500000  1
