# generated using pymatgen
data_Ba3Gd(BO2)9
_symmetry_space_group_name_H-M   'P 1'
_cell_length_a   7.29566815
_cell_length_b   7.29566815
_cell_length_c   17.69982100
_cell_angle_alpha   90.00000000
_cell_angle_beta   90.00000000
_cell_angle_gamma   120.00000137
_symmetry_Int_Tables_number   1
_chemical_formula_structural   Ba3Gd(BO2)9
_chemical_formula_sum   'Ba6 Gd2 B18 O36'
_cell_volume   815.88630457
_cell_formula_units_Z   2
loop_
 _symmetry_equiv_pos_site_id
 _symmetry_equiv_pos_as_xyz
  1  'x, y, z'
loop_
 _atom_site_type_symbol
 _atom_site_label
 _atom_site_symmetry_multiplicity
 _atom_site_fract_x
 _atom_site_fract_y
 _atom_site_fract_z
 _atom_site_occupancy
  Ba  Ba0  1  0.66666700  0.33333300  0.86799900  1
  Ba  Ba1  1  0.33333300  0.66666700  0.13200100  1
  Ba  Ba2  1  0.33333300  0.66666700  0.36799900  1
  Ba  Ba3  1  0.66666700  0.33333300  0.63200100  1
  Ba  Ba4  1  0.00000000  0.00000000  0.75000000  1
  Ba  Ba5  1  0.00000000  0.00000000  0.25000000  1
  Gd  Gd6  1  0.00000000  0.00000000  0.00000000  1
  Gd  Gd7  1  0.00000000  0.00000000  0.50000000  1
  B  B8  1  0.54917700  0.83475800  0.91783600  1
  B  B9  1  0.45082300  0.16524200  0.08216400  1
  B  B10  1  0.28558100  0.45082300  0.91783600  1
  B  B11  1  0.45082300  0.16524200  0.41783600  1
  B  B12  1  0.71441900  0.54917700  0.08216400  1
  B  B13  1  0.54917700  0.83475800  0.58216400  1
  B  B14  1  0.16524200  0.71441900  0.91783600  1
  B  B15  1  0.71441900  0.54917700  0.41783600  1
  B  B16  1  0.83475800  0.28558100  0.08216400  1
  B  B17  1  0.28558100  0.45082300  0.58216400  1
  B  B18  1  0.83475800  0.28558100  0.41783600  1
  B  B19  1  0.16524200  0.71441900  0.58216400  1
  B  B20  1  0.50449600  0.62220300  0.75000000  1
  B  B21  1  0.49550400  0.37779700  0.25000000  1
  B  B22  1  0.11770700  0.49550400  0.75000000  1
  B  B23  1  0.88229300  0.50449600  0.25000000  1
  B  B24  1  0.37779700  0.88229300  0.75000000  1
  B  B25  1  0.62220300  0.11770700  0.25000000  1
  O  O26  1  0.54124200  0.83242100  0.75000000  1
  O  O27  1  0.45875800  0.16757900  0.25000000  1
  O  O28  1  0.29117900  0.45875800  0.75000000  1
  O  O29  1  0.70882100  0.54124200  0.25000000  1
  O  O30  1  0.16757900  0.70882100  0.75000000  1
  O  O31  1  0.83242100  0.29117900  0.25000000  1
  O  O32  1  0.92032300  0.33273300  0.75000000  1
  O  O33  1  0.07967700  0.66726700  0.25000000  1
  O  O34  1  0.41241000  0.07967700  0.75000000  1
  O  O35  1  0.58759000  0.92032300  0.25000000  1
  O  O36  1  0.66726700  0.58759000  0.75000000  1
  O  O37  1  0.33273300  0.41241000  0.25000000  1
  O  O38  1  0.74828600  0.99547300  0.91810500  1
  O  O39  1  0.25171400  0.00452700  0.08189500  1
  O  O40  1  0.24718700  0.25171400  0.91810500  1
  O  O41  1  0.25171400  0.00452700  0.41810500  1
  O  O42  1  0.75281300  0.74828600  0.08189500  1
  O  O43  1  0.74828600  0.99547300  0.58189500  1
  O  O44  1  0.00452700  0.75281300  0.91810500  1
  O  O45  1  0.75281300  0.74828600  0.41810500  1
  O  O46  1  0.99547300  0.24718700  0.08189500  1
  O  O47  1  0.24718700  0.25171400  0.58189500  1
  O  O48  1  0.99547300  0.24718700  0.41810500  1
  O  O49  1  0.00452700  0.75281300  0.58189500  1
  O  O50  1  0.49653900  0.62068400  0.91836100  1
  O  O51  1  0.50346100  0.37931600  0.08163900  1
  O  O52  1  0.12414500  0.50346100  0.91836100  1
  O  O53  1  0.50346100  0.37931600  0.41836100  1
  O  O54  1  0.87585500  0.49653900  0.08163900  1
  O  O55  1  0.49653900  0.62068400  0.58163900  1
  O  O56  1  0.37931600  0.87585500  0.91836100  1
  O  O57  1  0.87585500  0.49653900  0.41836100  1
  O  O58  1  0.62068400  0.12414500  0.08163900  1
  O  O59  1  0.12414500  0.50346100  0.58163900  1
  O  O60  1  0.62068400  0.12414500  0.41836100  1
  O  O61  1  0.37931600  0.87585500  0.58163900  1
