# generated using pymatgen
data_Sc6Al16Rh7
_symmetry_space_group_name_H-M   'P 1'
_cell_length_a   8.76210063
_cell_length_b   8.76210063
_cell_length_c   8.76210063
_cell_angle_alpha   60.00000000
_cell_angle_beta   60.00000000
_cell_angle_gamma   60.00000000
_symmetry_Int_Tables_number   1
_chemical_formula_structural   Sc6Al16Rh7
_chemical_formula_sum   'Sc6 Al16 Rh7'
_cell_volume   475.67432588
_cell_formula_units_Z   1
loop_
 _symmetry_equiv_pos_site_id
 _symmetry_equiv_pos_as_xyz
  1  'x, y, z'
loop_
 _atom_site_type_symbol
 _atom_site_label
 _atom_site_symmetry_multiplicity
 _atom_site_fract_x
 _atom_site_fract_y
 _atom_site_fract_z
 _atom_site_occupancy
  Sc  Sc0  1  0.70447106  0.29552894  0.29552894  1
  Sc  Sc1  1  0.70447106  0.29552894  0.70447106  1
  Sc  Sc2  1  0.70447106  0.70447106  0.29552894  1
  Sc  Sc3  1  0.29552894  0.70447106  0.70447106  1
  Sc  Sc4  1  0.29552894  0.70447106  0.29552894  1
  Sc  Sc5  1  0.29552894  0.29552894  0.70447106  1
  Al  Al6  1  0.64209986  0.11930005  0.11930005  1
  Al  Al7  1  0.11930005  0.64209986  0.11930005  1
  Al  Al8  1  0.11930005  0.11930005  0.64209986  1
  Al  Al9  1  0.11930005  0.11930005  0.11930005  1
  Al  Al10  1  0.35790014  0.88069995  0.88069995  1
  Al  Al11  1  0.88069995  0.35790014  0.88069995  1
  Al  Al12  1  0.88069995  0.88069995  0.35790014  1
  Al  Al13  1  0.88069995  0.88069995  0.88069995  1
  Al  Al14  1  0.00197820  0.33267393  0.33267393  1
  Al  Al15  1  0.33267393  0.00197820  0.33267393  1
  Al  Al16  1  0.33267393  0.33267393  0.00197820  1
  Al  Al17  1  0.33267393  0.33267393  0.33267393  1
  Al  Al18  1  0.99802180  0.66732607  0.66732607  1
  Al  Al19  1  0.66732607  0.99802180  0.66732607  1
  Al  Al20  1  0.66732607  0.66732607  0.99802180  1
  Al  Al21  1  0.66732607  0.66732607  0.66732607  1
  Rh  Rh22  1  -0.00000000  -0.00000000  -0.00000000  1
  Rh  Rh23  1  0.50000000  -0.00000000  -0.00000000  1
  Rh  Rh24  1  0.50000000  -0.00000000  0.50000000  1
  Rh  Rh25  1  0.50000000  0.50000000  -0.00000000  1
  Rh  Rh26  1  -0.00000000  0.50000000  0.50000000  1
  Rh  Rh27  1  -0.00000000  0.50000000  -0.00000000  1
  Rh  Rh28  1  -0.00000000  -0.00000000  0.50000000  1
