# generated using pymatgen
data_Sm(CuSn)2
_symmetry_space_group_name_H-M   'P 1'
_cell_length_a   4.46274300
_cell_length_b   4.46274300
_cell_length_c   10.53296700
_cell_angle_alpha   90.00000000
_cell_angle_beta   90.00000000
_cell_angle_gamma   90.00000000
_symmetry_Int_Tables_number   1
_chemical_formula_structural   Sm(CuSn)2
_chemical_formula_sum   'Sm2 Cu4 Sn4'
_cell_volume   209.77536163
_cell_formula_units_Z   2
loop_
 _symmetry_equiv_pos_site_id
 _symmetry_equiv_pos_as_xyz
  1  'x, y, z'
loop_
 _atom_site_type_symbol
 _atom_site_label
 _atom_site_symmetry_multiplicity
 _atom_site_fract_x
 _atom_site_fract_y
 _atom_site_fract_z
 _atom_site_occupancy
  Sm  Sm0  1  0.00000000  0.50000000  0.23834300  1
  Sm  Sm1  1  0.50000000  0.00000000  0.76165700  1
  Cu  Cu2  1  0.00000000  0.00000000  0.00000000  1
  Cu  Cu3  1  0.50000000  0.50000000  0.00000000  1
  Cu  Cu4  1  0.00000000  0.50000000  0.63442300  1
  Cu  Cu5  1  0.50000000  0.00000000  0.36557700  1
  Sn  Sn6  1  0.00000000  0.00000000  0.50000000  1
  Sn  Sn7  1  0.50000000  0.50000000  0.50000000  1
  Sn  Sn8  1  0.00000000  0.50000000  0.87241600  1
  Sn  Sn9  1  0.50000000  0.00000000  0.12758400  1
