# generated using pymatgen
data_KYb(WO4)2
_symmetry_space_group_name_H-M   'P 1'
_cell_length_a   7.80094132
_cell_length_b   7.80094132
_cell_length_c   7.48753955
_cell_angle_alpha   61.85835930
_cell_angle_beta   61.85835928
_cell_angle_gamma   88.08917096
_symmetry_Int_Tables_number   1
_chemical_formula_structural   KYb(WO4)2
_chemical_formula_sum   'K2 Yb2 W4 O16'
_cell_volume   343.65049234
_cell_formula_units_Z   2
loop_
 _symmetry_equiv_pos_site_id
 _symmetry_equiv_pos_as_xyz
  1  'x, y, z'
loop_
 _atom_site_type_symbol
 _atom_site_label
 _atom_site_symmetry_multiplicity
 _atom_site_fract_x
 _atom_site_fract_y
 _atom_site_fract_z
 _atom_site_occupancy
  O  O0  1  0.24356335  0.12594893  0.56291051  1
  O  O1  1  0.87405179  0.75643617  0.93708901  1
  O  O2  1  0.75643647  0.87405157  0.43708960  1
  O  O3  1  0.12594952  0.24356434  0.06291040  1
  O  O4  1  0.16340928  0.44783261  0.62472749  1
  O  O5  1  0.55216788  0.83659115  0.87527170  1
  O  O6  1  0.83659202  0.55216789  0.37527192  1
  O  O7  1  0.44783195  0.16340937  0.12472709  1
  O  O8  1  0.24391469  0.45748604  0.20211443  1
  O  O9  1  0.54251448  0.75608507  0.29788503  1
  O  O10  1  0.75608513  0.54251446  0.79788568  1
  O  O11  1  0.45748536  0.24391545  0.70211377  1
  O  O12  1  0.11983225  0.90013251  0.03895066  1
  O  O13  1  0.88016869  0.09986648  0.96104833  1
  O  O14  1  0.09986716  0.88016838  0.46104879  1
  O  O15  1  0.90013266  0.11983212  0.53895132  1
  K  K16  1  0.28637299  0.71362712  0.74999976  1
  K  K17  1  0.71362683  0.28637338  0.25000035  1
  Yb  Yb18  1  0.27485329  0.72514700  0.25000031  1
  Yb  Yb19  1  0.72514802  0.27485351  0.74999910  1
  W  W20  1  0.80201713  0.80860471  0.70148616  1
  W  W21  1  0.19798269  0.19139579  0.29851395  1
  W  W22  1  0.19139526  0.19798278  0.79851484  1
  W  W23  1  0.80860419  0.80201619  0.20148617  1
