# generated using pymatgen
data_UCoNiGe2
_symmetry_space_group_name_H-M   'P 1'
_cell_length_a   4.10088800
_cell_length_b   4.10088800
_cell_length_c   9.59532800
_cell_angle_alpha   90.00000000
_cell_angle_beta   90.00000000
_cell_angle_gamma   90.00000000
_symmetry_Int_Tables_number   1
_chemical_formula_structural   UCoNiGe2
_chemical_formula_sum   'U2 Co2 Ni2 Ge4'
_cell_volume   161.36734059
_cell_formula_units_Z   2
loop_
 _symmetry_equiv_pos_site_id
 _symmetry_equiv_pos_as_xyz
  1  'x, y, z'
loop_
 _atom_site_type_symbol
 _atom_site_label
 _atom_site_symmetry_multiplicity
 _atom_site_fract_x
 _atom_site_fract_y
 _atom_site_fract_z
 _atom_site_occupancy
  U  U0  1  0.00000000  0.50000000  0.24718000  1
  U  U1  1  0.50000000  0.00000000  0.75282000  1
  Co  Co2  1  0.00000000  0.50000000  0.62546100  1
  Co  Co3  1  0.50000000  0.00000000  0.37453900  1
  Ni  Ni4  1  0.00000000  0.00000000  0.00000000  1
  Ni  Ni5  1  0.50000000  0.50000000  0.00000000  1
  Ge  Ge6  1  0.00000000  0.00000000  0.50000000  1
  Ge  Ge7  1  0.50000000  0.50000000  0.50000000  1
  Ge  Ge8  1  0.00000000  0.50000000  0.86699100  1
  Ge  Ge9  1  0.50000000  0.00000000  0.13300900  1
