# generated using pymatgen
data_Ba5P4
_symmetry_space_group_name_H-M   'P 1'
_cell_length_a   8.43656900
_cell_length_b   8.52545900
_cell_length_c   16.73818300
_cell_angle_alpha   90.00000000
_cell_angle_beta   90.00000000
_cell_angle_gamma   90.00000000
_symmetry_Int_Tables_number   1
_chemical_formula_structural   Ba5P4
_chemical_formula_sum   'Ba20 P16'
_cell_volume   1203.90424201
_cell_formula_units_Z   4
loop_
 _symmetry_equiv_pos_site_id
 _symmetry_equiv_pos_as_xyz
  1  'x, y, z'
loop_
 _atom_site_type_symbol
 _atom_site_label
 _atom_site_symmetry_multiplicity
 _atom_site_fract_x
 _atom_site_fract_y
 _atom_site_fract_z
 _atom_site_occupancy
  Ba  Ba0  1  0.74587100  0.99500400  0.25000000  1
  Ba  Ba1  1  0.24587100  0.50499600  0.25000000  1
  Ba  Ba2  1  0.75412900  0.49500400  0.75000000  1
  Ba  Ba3  1  0.25412900  0.00499600  0.75000000  1
  Ba  Ba4  1  0.57395500  0.33428500  0.10263400  1
  Ba  Ba5  1  0.07395500  0.16571500  0.39736600  1
  Ba  Ba6  1  0.92604500  0.83428500  0.89736600  1
  Ba  Ba7  1  0.42604500  0.66571500  0.60263400  1
  Ba  Ba8  1  0.42604500  0.66571500  0.89736600  1
  Ba  Ba9  1  0.92604500  0.83428500  0.60263400  1
  Ba  Ba10  1  0.07395500  0.16571500  0.10263400  1
  Ba  Ba11  1  0.57395500  0.33428500  0.39736600  1
  Ba  Ba12  1  0.40834600  0.84260800  0.39734400  1
  Ba  Ba13  1  0.90834600  0.65739200  0.10265600  1
  Ba  Ba14  1  0.09165400  0.34260800  0.60265600  1
  Ba  Ba15  1  0.59165400  0.15739200  0.89734400  1
  Ba  Ba16  1  0.59165400  0.15739200  0.60265600  1
  Ba  Ba17  1  0.09165400  0.34260800  0.89734400  1
  Ba  Ba18  1  0.90834600  0.65739200  0.39734400  1
  Ba  Ba19  1  0.40834600  0.84260800  0.10265600  1
  P  P20  1  0.35251000  0.41160500  0.75000000  1
  P  P21  1  0.85251000  0.08839500  0.75000000  1
  P  P22  1  0.14749000  0.91160500  0.25000000  1
  P  P23  1  0.64749000  0.58839500  0.25000000  1
  P  P24  1  0.15813600  0.60112400  0.75000000  1
  P  P25  1  0.65813600  0.89887600  0.75000000  1
  P  P26  1  0.34186400  0.10112400  0.25000000  1
  P  P27  1  0.84186400  0.39887600  0.25000000  1
  P  P28  1  0.74653100  0.99341000  0.05344200  1
  P  P29  1  0.24653100  0.50659000  0.44655800  1
  P  P30  1  0.75346900  0.49341000  0.94655800  1
  P  P31  1  0.25346900  0.00659000  0.55344200  1
  P  P32  1  0.25346900  0.00659000  0.94655800  1
  P  P33  1  0.75346900  0.49341000  0.55344200  1
  P  P34  1  0.24653100  0.50659000  0.05344200  1
  P  P35  1  0.74653100  0.99341000  0.44655800  1
