# generated using pymatgen
data_Ti2Si6Mo
_symmetry_space_group_name_H-M   'P 1'
_cell_length_a   4.72051032
_cell_length_b   4.72051032
_cell_length_c   6.51204000
_cell_angle_alpha   90.00000000
_cell_angle_beta   90.00000000
_cell_angle_gamma   120.11108684
_symmetry_Int_Tables_number   1
_chemical_formula_structural   Ti2Si6Mo
_chemical_formula_sum   'Ti2 Si6 Mo1'
_cell_volume   125.52735035
_cell_formula_units_Z   1
loop_
 _symmetry_equiv_pos_site_id
 _symmetry_equiv_pos_as_xyz
  1  'x, y, z'
loop_
 _atom_site_type_symbol
 _atom_site_label
 _atom_site_symmetry_multiplicity
 _atom_site_fract_x
 _atom_site_fract_y
 _atom_site_fract_z
 _atom_site_occupancy
  Ti  Ti0  1  0.50000000  0.00000000  0.66655400  1
  Ti  Ti1  1  0.00000000  0.50000000  0.33344600  1
  Si  Si2  1  0.16570100  0.83429900  0.00000000  1
  Si  Si3  1  0.15613500  0.31657800  0.66746900  1
  Si  Si4  1  0.68342200  0.84386500  0.33253100  1
  Si  Si5  1  0.83429900  0.16570100  0.00000000  1
  Si  Si6  1  0.84386500  0.68342200  0.66746900  1
  Si  Si7  1  0.31657800  0.15613500  0.33253100  1
  Mo  Mo8  1  0.50000000  0.50000000  0.00000000  1
