# generated using pymatgen
data_Dy5Sc5(Si5Ir2)4
_symmetry_space_group_name_H-M   'P 1'
_cell_length_a   12.53304507
_cell_length_b   12.53304507
_cell_length_c   4.18519100
_cell_angle_alpha   90.00000000
_cell_angle_beta   90.00000000
_cell_angle_gamma   90.08876055
_symmetry_Int_Tables_number   1
_chemical_formula_structural   Dy5Sc5(Si5Ir2)4
_chemical_formula_sum   'Dy5 Sc5 Si20 Ir8'
_cell_volume   657.39737337
_cell_formula_units_Z   1
loop_
 _symmetry_equiv_pos_site_id
 _symmetry_equiv_pos_as_xyz
  1  'x, y, z'
loop_
 _atom_site_type_symbol
 _atom_site_label
 _atom_site_symmetry_multiplicity
 _atom_site_fract_x
 _atom_site_fract_y
 _atom_site_fract_z
 _atom_site_occupancy
  Dy  Dy0  1  0.38487700  0.61512300  0.50000000  1
  Dy  Dy1  1  0.88485300  0.88479500  0.50000000  1
  Dy  Dy2  1  0.11520500  0.11514700  0.50000000  1
  Dy  Dy3  1  0.50003100  0.00024100  0.00000000  1
  Dy  Dy4  1  0.99975900  0.49996900  0.00000000  1
  Sc  Sc5  1  0.82574400  0.17425600  0.50000000  1
  Sc  Sc6  1  0.17389800  0.82610200  0.50000000  1
  Sc  Sc7  1  0.67389300  0.67321500  0.50000000  1
  Sc  Sc8  1  0.32678500  0.32610700  0.50000000  1
  Sc  Sc9  1  0.61521800  0.38478200  0.50000000  1
  Si  Si10  1  0.93294600  0.06705400  0.00000000  1
  Si  Si11  1  0.06697900  0.93302100  0.00000000  1
  Si  Si12  1  0.56721100  0.56575500  0.00000000  1
  Si  Si13  1  0.43424500  0.43278900  0.00000000  1
  Si  Si14  1  0.30038500  0.16619600  0.00000000  1
  Si  Si15  1  0.69995900  0.83400100  0.00000000  1
  Si  Si16  1  0.20004300  0.66578300  0.00000000  1
  Si  Si17  1  0.79879100  0.33460500  0.00000000  1
  Si  Si18  1  0.33421700  0.79995700  0.00000000  1
  Si  Si19  1  0.66539500  0.20120900  0.00000000  1
  Si  Si20  1  0.83380400  0.69961500  0.00000000  1
  Si  Si21  1  0.16599900  0.30004100  0.00000000  1
  Si  Si22  1  0.49581600  0.15779200  0.50000000  1
  Si  Si23  1  0.50475100  0.84325200  0.50000000  1
  Si  Si24  1  0.00482600  0.65671700  0.50000000  1
  Si  Si25  1  0.99519600  0.34334600  0.50000000  1
  Si  Si26  1  0.34328300  0.99517400  0.50000000  1
  Si  Si27  1  0.65665400  0.00480400  0.50000000  1
  Si  Si28  1  0.84220800  0.50418400  0.50000000  1
  Si  Si29  1  0.15674800  0.49524900  0.50000000  1
  Ir  Ir30  1  0.48073400  0.24748500  0.00000000  1
  Ir  Ir31  1  0.52071400  0.75325300  0.00000000  1
  Ir  Ir32  1  0.02044300  0.74599600  0.00000000  1
  Ir  Ir33  1  0.97916800  0.25404600  0.00000000  1
  Ir  Ir34  1  0.25400400  0.97955700  0.00000000  1
  Ir  Ir35  1  0.74595400  0.02083200  0.00000000  1
  Ir  Ir36  1  0.75251500  0.51926600  0.00000000  1
  Ir  Ir37  1  0.24674700  0.47928600  0.00000000  1
