# generated using pymatgen
data_NaSr2(FeAs)6
_symmetry_space_group_name_H-M   'P 1'
_cell_length_a   5.51590241
_cell_length_b   6.51737256
_cell_length_c   8.85506860
_cell_angle_alpha   114.12208338
_cell_angle_beta   71.85308624
_cell_angle_gamma   90.00000000
_symmetry_Int_Tables_number   1
_chemical_formula_structural   NaSr2(FeAs)6
_chemical_formula_sum   'Na1 Sr2 Fe6 As6'
_cell_volume   273.09423658
_cell_formula_units_Z   1
loop_
 _symmetry_equiv_pos_site_id
 _symmetry_equiv_pos_as_xyz
  1  'x, y, z'
loop_
 _atom_site_type_symbol
 _atom_site_label
 _atom_site_symmetry_multiplicity
 _atom_site_fract_x
 _atom_site_fract_y
 _atom_site_fract_z
 _atom_site_occupancy
  Na  Na0  1  0.00000000  0.00000000  0.00000000  1
  Sr  Sr1  1  0.33701400  0.00066300  0.32597000  1
  Sr  Sr2  1  0.66298600  0.99933700  0.67403000  1
  Fe  Fe3  1  0.41677300  0.49831500  0.66655000  1
  Fe  Fe4  1  0.08332300  0.50168500  0.33345000  1
  Fe  Fe5  1  0.75029600  0.50000000  0.00000000  1
  Fe  Fe6  1  0.24970400  0.50000000  0.00000000  1
  Fe  Fe7  1  0.91667700  0.49831500  0.66655000  1
  Fe  Fe8  1  0.58322700  0.50168500  0.33345000  1
  As  As9  1  0.11976400  0.28611800  0.76047300  1
  As  As10  1  0.78522100  0.29087500  0.42955800  1
  As  As11  1  0.45091400  0.28781500  0.09817300  1
  As  As12  1  0.54908600  0.71218500  0.90182700  1
  As  As13  1  0.21477900  0.70912500  0.57044200  1
  As  As14  1  0.88023600  0.71388200  0.23952700  1
