# generated using pymatgen
data_CrNiP
_symmetry_space_group_name_H-M   'P 1'
_cell_length_a   5.78219409
_cell_length_b   5.78219409
_cell_length_c   3.55333500
_cell_angle_alpha   90.00000000
_cell_angle_beta   90.00000000
_cell_angle_gamma   120.00000105
_symmetry_Int_Tables_number   1
_chemical_formula_structural   CrNiP
_chemical_formula_sum   'Cr3 Ni3 P3'
_cell_volume   102.88501187
_cell_formula_units_Z   3
loop_
 _symmetry_equiv_pos_site_id
 _symmetry_equiv_pos_as_xyz
  1  'x, y, z'
loop_
 _atom_site_type_symbol
 _atom_site_label
 _atom_site_symmetry_multiplicity
 _atom_site_fract_x
 _atom_site_fract_y
 _atom_site_fract_z
 _atom_site_occupancy
  Cr  Cr0  1  0.00000000  0.40801300  0.50000000  1
  Cr  Cr1  1  0.59198700  0.59198700  0.50000000  1
  Cr  Cr2  1  0.40801300  0.00000000  0.50000000  1
  Ni  Ni3  1  0.00000000  0.74421200  0.00000000  1
  Ni  Ni4  1  0.25578800  0.25578800  0.00000000  1
  Ni  Ni5  1  0.74421200  0.00000000  0.00000000  1
  P  P6  1  0.33333300  0.66666700  0.00000000  1
  P  P7  1  0.66666700  0.33333300  0.00000000  1
  P  P8  1  0.00000000  0.00000000  0.50000000  1
