# generated using pymatgen
data_Er3(CoGe2)2
_symmetry_space_group_name_H-M   'P 1'
_cell_length_a   5.67766642
_cell_length_b   5.67766642
_cell_length_c   7.99005210
_cell_angle_alpha   73.65135946
_cell_angle_beta   73.65135946
_cell_angle_gamma   43.13172995
_symmetry_Int_Tables_number   1
_chemical_formula_structural   Er3(CoGe2)2
_chemical_formula_sum   'Er3 Co2 Ge4'
_cell_volume   167.83302196
_cell_formula_units_Z   1
loop_
 _symmetry_equiv_pos_site_id
 _symmetry_equiv_pos_as_xyz
  1  'x, y, z'
loop_
 _atom_site_type_symbol
 _atom_site_label
 _atom_site_symmetry_multiplicity
 _atom_site_fract_x
 _atom_site_fract_y
 _atom_site_fract_z
 _atom_site_occupancy
  Er  Er0  1  0.37643900  0.37643900  0.69259100  1
  Er  Er1  1  0.62356100  0.62356100  0.30740900  1
  Er  Er2  1  0.00000000  0.00000000  0.00000000  1
  Co  Co3  1  0.31000800  0.31000800  0.37033800  1
  Co  Co4  1  0.68999200  0.68999200  0.62966200  1
  Ge  Ge5  1  0.09726600  0.09726600  0.59969800  1
  Ge  Ge6  1  0.90273400  0.90273400  0.40030200  1
  Ge  Ge7  1  0.70952400  0.70952400  0.92027100  1
  Ge  Ge8  1  0.29047600  0.29047600  0.07972900  1
