# generated using pymatgen
data_Na4WO5
_symmetry_space_group_name_H-M   'P 1'
_cell_length_a   5.73881128
_cell_length_b   5.77157510
_cell_length_c   8.60363295
_cell_angle_alpha   109.19736248
_cell_angle_beta   101.38139064
_cell_angle_gamma   102.29189707
_symmetry_Int_Tables_number   1
_chemical_formula_structural   Na4WO5
_chemical_formula_sum   'Na8 W2 O10'
_cell_volume   251.67499234
_cell_formula_units_Z   2
loop_
 _symmetry_equiv_pos_site_id
 _symmetry_equiv_pos_as_xyz
  1  'x, y, z'
loop_
 _atom_site_type_symbol
 _atom_site_label
 _atom_site_symmetry_multiplicity
 _atom_site_fract_x
 _atom_site_fract_y
 _atom_site_fract_z
 _atom_site_occupancy
  Na  Na0  1  0.21026548  0.41522384  0.90256126  1
  Na  Na1  1  0.41365816  0.79997830  0.29393011  1
  Na  Na2  1  0.70034382  0.39481330  0.39781131  1
  Na  Na3  1  0.29965618  0.60518670  0.60218869  1
  Na  Na4  1  0.78973452  0.58477616  0.09743874  1
  Na  Na5  1  -0.00000000  -0.00000000  0.50000000  1
  Na  Na6  1  0.50000000  -0.00000000  0.00000000  1
  Na  Na7  1  0.58634184  0.20002170  0.70606989  1
  W  W8  1  0.89616570  0.79854127  0.79493190  1
  W  W9  1  0.10383430  0.20145873  0.20506810  1
  O  O10  1  0.60377783  0.62956396  0.84405207  1
  O  O11  1  0.39622217  0.37043604  0.15594793  1
  O  O12  1  0.69166553  0.82177923  0.60021706  1
  O  O13  1  0.30833447  0.17822077  0.39978294  1
  O  O14  1  0.80558074  0.01960446  0.24182345  1
  O  O15  1  0.19441926  0.98039554  0.75817655  1
  O  O16  1  0.88603909  0.15441027  0.96344660  1
  O  O17  1  0.11396091  0.84558973  0.03655340  1
  O  O18  1  0.05550596  0.52334924  0.31467603  1
  O  O19  1  0.94449404  0.47665076  0.68532397  1
