# generated using pymatgen
data_RbSbWO6
_symmetry_space_group_name_H-M   'P 1'
_cell_length_a   7.37603717
_cell_length_b   7.41059259
_cell_length_c   7.29168271
_cell_angle_alpha   90.00000000
_cell_angle_beta   60.37759365
_cell_angle_gamma   120.15509401
_symmetry_Int_Tables_number   1
_chemical_formula_structural   RbSbWO6
_chemical_formula_sum   'Rb2 Sb2 W2 O12'
_cell_volume   282.77008440
_cell_formula_units_Z   2
loop_
 _symmetry_equiv_pos_site_id
 _symmetry_equiv_pos_as_xyz
  1  'x, y, z'
loop_
 _atom_site_type_symbol
 _atom_site_label
 _atom_site_symmetry_multiplicity
 _atom_site_fract_x
 _atom_site_fract_y
 _atom_site_fract_z
 _atom_site_occupancy
  Rb  Rb0  1  0.73148099  0.36113454  0.38425901  1
  Rb  Rb1  1  0.26851901  0.62965355  0.61574099  1
  Sb  Sb2  1  0.00000000  0.99583014  0.50000000  1
  Sb  Sb3  1  0.00000000  0.99583014  0.00000000  1
  W  W4  1  0.50005073  0.49579207  0.99997514  1
  W  W5  1  0.49994927  0.99574135  0.00002486  1
  O  O6  1  0.84984695  0.92078256  0.32507603  1
  O  O7  1  0.61734554  0.30448772  0.94132673  1
  O  O8  1  0.25380653  0.92910324  0.93392333  1
  O  O9  1  0.25380472  0.31636992  0.31226983  1
  O  O10  1  0.25380472  0.31636992  0.93392545  1
  O  O11  1  0.25380653  0.92910324  0.31227014  1
  O  O12  1  0.15015305  0.07093461  0.67492397  1
  O  O13  1  0.38265446  0.68714218  0.05867327  1
  O  O14  1  0.74619528  0.06256520  0.06607455  1
  O  O15  1  0.74619347  0.67529771  0.68772986  1
  O  O16  1  0.74619347  0.67529771  0.06607667  1
  O  O17  1  0.74619528  0.06256520  0.68773017  1
