# generated using pymatgen
data_Ni(TePd)2
_symmetry_space_group_name_H-M   'P 1'
_cell_length_a   7.05829618
_cell_length_b   7.05829618
_cell_length_c   7.05829618
_cell_angle_alpha   137.04205310
_cell_angle_beta   126.33476982
_cell_angle_gamma   71.07342408
_symmetry_Int_Tables_number   1
_chemical_formula_structural   Ni(TePd)2
_chemical_formula_sum   'Ni2 Te4 Pd4'
_cell_volume   189.17568227
_cell_formula_units_Z   2
loop_
 _symmetry_equiv_pos_site_id
 _symmetry_equiv_pos_as_xyz
  1  'x, y, z'
loop_
 _atom_site_type_symbol
 _atom_site_label
 _atom_site_symmetry_multiplicity
 _atom_site_fract_x
 _atom_site_fract_y
 _atom_site_fract_z
 _atom_site_occupancy
  Ni  Ni0  1  0.00000000  0.75000000  0.75000000  1
  Ni  Ni1  1  0.00000000  0.25000000  0.25000000  1
  Te  Te2  1  0.07399200  0.35360200  0.72039000  1
  Te  Te3  1  0.92600800  0.64639800  0.27961000  1
  Te  Te4  1  0.36678800  0.14639800  0.22039000  1
  Te  Te5  1  0.63321200  0.85360200  0.77961000  1
  Pd  Pd6  1  0.47094900  0.60418800  0.86676100  1
  Pd  Pd7  1  0.26257200  0.89581200  0.36676100  1
  Pd  Pd8  1  0.73742800  0.10418800  0.63323900  1
  Pd  Pd9  1  0.52905100  0.39581200  0.13323900  1
