# generated using pymatgen
data_Si7(Ni2Au)2
_symmetry_space_group_name_H-M   'P 1'
_cell_length_a   6.70413606
_cell_length_b   6.70413606
_cell_length_c   7.99665306
_cell_angle_alpha   70.96763713
_cell_angle_beta   70.96763713
_cell_angle_gamma   32.80734909
_symmetry_Int_Tables_number   1
_chemical_formula_structural   Si7(Ni2Au)2
_chemical_formula_sum   'Si7 Ni4 Au2'
_cell_volume   183.13876070
_cell_formula_units_Z   1
loop_
 _symmetry_equiv_pos_site_id
 _symmetry_equiv_pos_as_xyz
  1  'x, y, z'
loop_
 _atom_site_type_symbol
 _atom_site_label
 _atom_site_symmetry_multiplicity
 _atom_site_fract_x
 _atom_site_fract_y
 _atom_site_fract_z
 _atom_site_occupancy
  Si  Si0  1  0.16495000  0.16495000  0.57613100  1
  Si  Si1  1  0.83505000  0.83505000  0.42386900  1
  Si  Si2  1  0.49497500  0.49497500  0.33482700  1
  Si  Si3  1  0.50502500  0.50502500  0.66517300  1
  Si  Si4  1  0.15430300  0.15430300  0.24160600  1
  Si  Si5  1  0.84569700  0.84569700  0.75839400  1
  Si  Si6  1  0.50000000  0.50000000  0.00000000  1
  Ni  Ni7  1  0.34471900  0.34471900  0.58752200  1
  Ni  Ni8  1  0.65528100  0.65528100  0.41247800  1
  Ni  Ni9  1  0.00542900  0.00542900  0.83188900  1
  Ni  Ni10  1  0.99457100  0.99457100  0.16811100  1
  Au  Au11  1  0.19370600  0.19370600  0.90670500  1
  Au  Au12  1  0.80629400  0.80629400  0.09329500  1
