# generated using pymatgen
data_Cs2BaTa6(Br5O)3
_symmetry_space_group_name_H-M   'P 1'
_cell_length_a   9.98310076
_cell_length_b   9.98310076
_cell_length_c   18.74710477
_cell_angle_alpha   89.74207268
_cell_angle_beta   89.74207268
_cell_angle_gamma   120.34230729
_symmetry_Int_Tables_number   1
_chemical_formula_structural   Cs2BaTa6(Br5O)3
_chemical_formula_sum   'Cs4 Ba2 Ta12 Br30 O6'
_cell_volume   1612.38809780
_cell_formula_units_Z   2
loop_
 _symmetry_equiv_pos_site_id
 _symmetry_equiv_pos_as_xyz
  1  'x, y, z'
loop_
 _atom_site_type_symbol
 _atom_site_label
 _atom_site_symmetry_multiplicity
 _atom_site_fract_x
 _atom_site_fract_y
 _atom_site_fract_z
 _atom_site_occupancy
  Cs  Cs0  1  0.33297000  0.66539700  0.95959700  1
  Cs  Cs1  1  0.66539700  0.33297000  0.45959700  1
  Cs  Cs2  1  0.66703000  0.33460300  0.04040300  1
  Cs  Cs3  1  0.33460300  0.66703000  0.54040300  1
  Ba  Ba4  1  0.33276300  0.66723700  0.25000000  1
  Ba  Ba5  1  0.66723700  0.33276300  0.75000000  1
  Ta  Ta6  1  0.16720000  0.98346800  0.31257100  1
  Ta  Ta7  1  0.01597300  0.18635800  0.31552600  1
  Ta  Ta8  1  0.82355200  0.83511300  0.31229400  1
  Ta  Ta9  1  0.98346800  0.16720000  0.81257100  1
  Ta  Ta10  1  0.83511300  0.82355200  0.81229400  1
  Ta  Ta11  1  0.18635800  0.01597300  0.81552600  1
  Ta  Ta12  1  0.83280000  0.01653200  0.68742900  1
  Ta  Ta13  1  0.98402700  0.81364200  0.68447400  1
  Ta  Ta14  1  0.17644800  0.16488700  0.68770600  1
  Ta  Ta15  1  0.01653200  0.83280000  0.18742900  1
  Ta  Ta16  1  0.16488700  0.17644800  0.18770600  1
  Ta  Ta17  1  0.81364200  0.98402700  0.18447400  1
  Br  Br18  1  0.78246800  0.98298100  0.90933600  1
  Br  Br19  1  0.01348200  0.79697200  0.90909900  1
  Br  Br20  1  0.20156000  0.21646800  0.90925100  1
  Br  Br21  1  0.98298100  0.78246800  0.40933600  1
  Br  Br22  1  0.21646800  0.20156000  0.40925100  1
  Br  Br23  1  0.79697200  0.01348200  0.40909900  1
  Br  Br24  1  0.21753200  0.01701900  0.09066400  1
  Br  Br25  1  0.98651800  0.20302800  0.09090100  1
  Br  Br26  1  0.79844000  0.78353200  0.09074900  1
  Br  Br27  1  0.01701900  0.21753200  0.59066400  1
  Br  Br28  1  0.78353200  0.79844000  0.59074900  1
  Br  Br29  1  0.20302800  0.98651800  0.59090100  1
  Br  Br30  1  0.38491100  0.94088700  0.38511900  1
  Br  Br31  1  0.05851800  0.44382100  0.38588200  1
  Br  Br32  1  0.55904400  0.61539300  0.38484400  1
  Br  Br33  1  0.94088700  0.38491100  0.88511900  1
  Br  Br34  1  0.61539300  0.55904400  0.88484400  1
  Br  Br35  1  0.44382100  0.05851800  0.88588200  1
  Br  Br36  1  0.61508900  0.05911300  0.61488100  1
  Br  Br37  1  0.94148200  0.55617900  0.61411800  1
  Br  Br38  1  0.44095600  0.38460700  0.61515600  1
  Br  Br39  1  0.05911300  0.61508900  0.11488100  1
  Br  Br40  1  0.38460700  0.44095600  0.11515600  1
  Br  Br41  1  0.55617900  0.94148200  0.11411800  1
  Br  Br42  1  0.58568700  0.79090400  0.75036500  1
  Br  Br43  1  0.20731200  0.79268800  0.75000000  1
  Br  Br44  1  0.20909600  0.41431300  0.74963500  1
  Br  Br45  1  0.79090400  0.58568700  0.25036500  1
  Br  Br46  1  0.41431300  0.20909600  0.24963500  1
  Br  Br47  1  0.79268800  0.20731200  0.25000000  1
  O  O48  1  0.83213800  0.66097700  0.75019800  1
  O  O49  1  0.33902300  0.16786200  0.74980200  1
  O  O50  1  0.82913100  0.17086900  0.75000000  1
  O  O51  1  0.66097700  0.83213800  0.25019800  1
  O  O52  1  0.17086900  0.82913100  0.25000000  1
  O  O53  1  0.16786200  0.33902300  0.24980200  1
