# generated using pymatgen
data_Ho10Mn13C18
_symmetry_space_group_name_H-M   'P 1'
_cell_length_a   8.69607150
_cell_length_b   8.69607150
_cell_length_c   8.69607150
_cell_angle_alpha   109.47122063
_cell_angle_beta   109.47122063
_cell_angle_gamma   109.47122063
_symmetry_Int_Tables_number   1
_chemical_formula_structural   Ho10Mn13C18
_chemical_formula_sum   'Ho10 Mn13 C18'
_cell_volume   506.22945918
_cell_formula_units_Z   1
loop_
 _symmetry_equiv_pos_site_id
 _symmetry_equiv_pos_as_xyz
  1  'x, y, z'
loop_
 _atom_site_type_symbol
 _atom_site_label
 _atom_site_symmetry_multiplicity
 _atom_site_fract_x
 _atom_site_fract_y
 _atom_site_fract_z
 _atom_site_occupancy
  Ho  Ho0  1  0.50000000  0.75000000  0.25000000  1
  Ho  Ho1  1  0.75000000  0.50000000  0.25000000  1
  Ho  Ho2  1  0.25000000  0.75000000  0.50000000  1
  Ho  Ho3  1  0.25000000  0.50000000  0.75000000  1
  Ho  Ho4  1  0.50000000  0.25000000  0.75000000  1
  Ho  Ho5  1  0.75000000  0.25000000  0.50000000  1
  Ho  Ho6  1  0.40911743  0.00000000  0.00000000  1
  Ho  Ho7  1  0.00000000  0.40911743  -0.00000000  1
  Ho  Ho8  1  -0.00000000  0.00000000  0.40911743  1
  Ho  Ho9  1  0.59088257  0.59088257  0.59088257  1
  Mn  Mn10  1  0.00000000  0.00000000  0.00000000  1
  Mn  Mn11  1  0.66604536  0.82004674  0.00000000  1
  Mn  Mn12  1  0.84599862  0.17995326  0.17995326  1
  Mn  Mn13  1  0.66604536  -0.00000000  0.82004674  1
  Mn  Mn14  1  0.82004674  0.66604536  0.00000000  1
  Mn  Mn15  1  0.00000000  0.66604536  0.82004674  1
  Mn  Mn16  1  0.17995326  0.84599862  0.17995326  1
  Mn  Mn17  1  0.17995326  0.17995326  0.84599862  1
  Mn  Mn18  1  0.00000000  0.82004674  0.66604536  1
  Mn  Mn19  1  0.82004674  0.00000000  0.66604536  1
  Mn  Mn20  1  0.33395464  0.33395464  0.15400138  1
  Mn  Mn21  1  0.15400138  0.33395464  0.33395464  1
  Mn  Mn22  1  0.33395464  0.15400138  0.33395464  1
  C  C23  1  0.70351062  0.21977139  0.00000000  1
  C  C24  1  0.48373923  0.78022861  0.78022861  1
  C  C25  1  0.70351062  -0.00000000  0.21977139  1
  C  C26  1  0.21977139  0.70351062  0.00000000  1
  C  C27  1  0.00000000  0.70351062  0.21977139  1
  C  C28  1  0.78022861  0.48373923  0.78022861  1
  C  C29  1  0.78022861  0.78022861  0.48373923  1
  C  C30  1  0.00000000  0.21977139  0.70351062  1
  C  C31  1  0.21977139  -0.00000000  0.70351062  1
  C  C32  1  0.29648938  0.29648938  0.51626077  1
  C  C33  1  0.51626077  0.29648938  0.29648938  1
  C  C34  1  0.29648938  0.51626077  0.29648938  1
  C  C35  1  0.56873404  0.56873404  -0.00000000  1
  C  C36  1  0.00000000  0.43126596  0.43126596  1
  C  C37  1  0.56873404  -0.00000000  0.56873404  1
  C  C38  1  -0.00000000  0.56873404  0.56873404  1
  C  C39  1  0.43126596  0.00000000  0.43126596  1
  C  C40  1  0.43126596  0.43126596  0.00000000  1
