# generated using pymatgen
data_LaSmCr2O6
_symmetry_space_group_name_H-M   'P 1'
_cell_length_a   5.50144700
_cell_length_b   5.58657000
_cell_length_c   7.83052000
_cell_angle_alpha   90.00000000
_cell_angle_beta   90.00000000
_cell_angle_gamma   90.00000000
_symmetry_Int_Tables_number   1
_chemical_formula_structural   LaSmCr2O6
_chemical_formula_sum   'La2 Sm2 Cr4 O12'
_cell_volume   240.66491474
_cell_formula_units_Z   2
loop_
 _symmetry_equiv_pos_site_id
 _symmetry_equiv_pos_as_xyz
  1  'x, y, z'
loop_
 _atom_site_type_symbol
 _atom_site_label
 _atom_site_symmetry_multiplicity
 _atom_site_fract_x
 _atom_site_fract_y
 _atom_site_fract_z
 _atom_site_occupancy
  La  La0  1  0.24168400  0.46218800  0.50000000  1
  La  La1  1  0.75831600  0.96218800  0.50000000  1
  Sm  Sm2  1  0.26070300  0.55105900  0.00000000  1
  Sm  Sm3  1  0.73929700  0.05105900  0.00000000  1
  Cr  Cr4  1  0.75105400  0.50080300  0.75405400  1
  Cr  Cr5  1  0.24894600  0.00080300  0.24594600  1
  Cr  Cr6  1  0.75105400  0.50080300  0.24594600  1
  Cr  Cr7  1  0.24894600  0.00080300  0.75405400  1
  O  O8  1  0.54285000  0.79265900  0.80330600  1
  O  O9  1  0.45715000  0.29265900  0.19669400  1
  O  O10  1  0.95458500  0.20547600  0.29018100  1
  O  O11  1  0.04541500  0.70547600  0.70981900  1
  O  O12  1  0.95458500  0.20547600  0.70981900  1
  O  O13  1  0.04541500  0.70547600  0.29018100  1
  O  O14  1  0.54285000  0.79265900  0.19669400  1
  O  O15  1  0.45715000  0.29265900  0.80330600  1
  O  O16  1  0.15504500  0.97115300  0.00000000  1
  O  O17  1  0.84495500  0.47115300  0.00000000  1
  O  O18  1  0.32923000  0.01772600  0.50000000  1
  O  O19  1  0.67077000  0.51772600  0.50000000  1
