# generated using pymatgen
data_Ba3CaRu2O9
_symmetry_space_group_name_H-M   'P 1'
_cell_length_a   5.90190641
_cell_length_b   5.90190641
_cell_length_c   7.28604100
_cell_angle_alpha   90.00000000
_cell_angle_beta   90.00000000
_cell_angle_gamma   120.00000459
_symmetry_Int_Tables_number   1
_chemical_formula_structural   Ba3CaRu2O9
_chemical_formula_sum   'Ba3 Ca1 Ru2 O9'
_cell_volume   219.78945851
_cell_formula_units_Z   1
loop_
 _symmetry_equiv_pos_site_id
 _symmetry_equiv_pos_as_xyz
  1  'x, y, z'
loop_
 _atom_site_type_symbol
 _atom_site_label
 _atom_site_symmetry_multiplicity
 _atom_site_fract_x
 _atom_site_fract_y
 _atom_site_fract_z
 _atom_site_occupancy
  Ba  Ba0  1  0.66666700  0.33333300  0.32296000  1
  Ba  Ba1  1  0.33333300  0.66666700  0.67704000  1
  Ba  Ba2  1  0.00000000  0.00000000  0.00000000  1
  Ca  Ca3  1  0.00000000  0.00000000  0.50000000  1
  Ru  Ru4  1  0.33333300  0.66666700  0.16581200  1
  Ru  Ru5  1  0.66666700  0.33333300  0.83418800  1
  O  O6  1  0.82160800  0.17839200  0.68645800  1
  O  O7  1  0.82160800  0.64321500  0.68645800  1
  O  O8  1  0.35678500  0.17839200  0.68645800  1
  O  O9  1  0.64321500  0.82160800  0.31354200  1
  O  O10  1  0.17839200  0.35678500  0.31354200  1
  O  O11  1  0.17839200  0.82160800  0.31354200  1
  O  O12  1  0.50000000  0.00000000  0.00000000  1
  O  O13  1  0.00000000  0.50000000  0.00000000  1
  O  O14  1  0.50000000  0.50000000  0.00000000  1
