# generated using pymatgen
data_B3Rh7
_symmetry_space_group_name_H-M   'P 1'
_cell_length_a   7.51640863
_cell_length_b   7.51640863
_cell_length_c   4.89047100
_cell_angle_alpha   90.00000000
_cell_angle_beta   90.00000000
_cell_angle_gamma   120.00000554
_symmetry_Int_Tables_number   1
_chemical_formula_structural   B3Rh7
_chemical_formula_sum   'B6 Rh14'
_cell_volume   239.27760901
_cell_formula_units_Z   2
loop_
 _symmetry_equiv_pos_site_id
 _symmetry_equiv_pos_as_xyz
  1  'x, y, z'
loop_
 _atom_site_type_symbol
 _atom_site_label
 _atom_site_symmetry_multiplicity
 _atom_site_fract_x
 _atom_site_fract_y
 _atom_site_fract_z
 _atom_site_occupancy
  B  B0  1  0.18837600  0.37675300  0.83461100  1
  B  B1  1  0.62324700  0.81162400  0.83461100  1
  B  B2  1  0.18837600  0.81162400  0.83461100  1
  B  B3  1  0.81162400  0.62324700  0.33461100  1
  B  B4  1  0.37675300  0.18837600  0.33461100  1
  B  B5  1  0.81162400  0.18837600  0.33461100  1
  Rh  Rh6  1  0.66666700  0.33333300  0.57772800  1
  Rh  Rh7  1  0.33333300  0.66666700  0.07772800  1
  Rh  Rh8  1  0.87719700  0.75439400  0.72417200  1
  Rh  Rh9  1  0.24560600  0.12280300  0.72417200  1
  Rh  Rh10  1  0.87719700  0.12280300  0.72417200  1
  Rh  Rh11  1  0.12280300  0.24560600  0.22417200  1
  Rh  Rh12  1  0.75439400  0.87719700  0.22417200  1
  Rh  Rh13  1  0.12280300  0.87719700  0.22417200  1
  Rh  Rh14  1  0.45586000  0.91171900  0.58581400  1
  Rh  Rh15  1  0.08828100  0.54414000  0.58581400  1
  Rh  Rh16  1  0.45586000  0.54414000  0.58581400  1
  Rh  Rh17  1  0.54414000  0.08828100  0.08581400  1
  Rh  Rh18  1  0.91171900  0.45586000  0.08581400  1
  Rh  Rh19  1  0.54414000  0.45586000  0.08581400  1
