# generated using pymatgen
data_KSm(MoO4)2
_symmetry_space_group_name_H-M   'P 1'
_cell_length_a   7.59000293
_cell_length_b   7.59000293
_cell_length_c   7.87054513
_cell_angle_alpha   61.67548399
_cell_angle_beta   61.67548399
_cell_angle_gamma   88.31233763
_symmetry_Int_Tables_number   1
_chemical_formula_structural   KSm(MoO4)2
_chemical_formula_sum   'K2 Sm2 Mo4 O16'
_cell_volume   339.95240857
_cell_formula_units_Z   2
loop_
 _symmetry_equiv_pos_site_id
 _symmetry_equiv_pos_as_xyz
  1  'x, y, z'
loop_
 _atom_site_type_symbol
 _atom_site_label
 _atom_site_symmetry_multiplicity
 _atom_site_fract_x
 _atom_site_fract_y
 _atom_site_fract_z
 _atom_site_occupancy
  K  K0  1  0.20029600  0.79970400  0.75000000  1
  K  K1  1  0.79970400  0.20029600  0.25000000  1
  Sm  Sm2  1  0.77053400  0.22946600  0.75000000  1
  Sm  Sm3  1  0.22946600  0.77053400  0.25000000  1
  Mo  Mo4  1  0.69345800  0.69691500  0.76075300  1
  Mo  Mo5  1  0.30654200  0.30308500  0.23924700  1
  Mo  Mo6  1  0.30308500  0.30654200  0.73924700  1
  Mo  Mo7  1  0.69691500  0.69345800  0.26075300  1
  O  O8  1  0.61390900  0.76745800  0.56236100  1
  O  O9  1  0.38609100  0.23254200  0.43763900  1
  O  O10  1  0.23254200  0.38609100  0.93763900  1
  O  O11  1  0.76745800  0.61390900  0.06236100  1
  O  O12  1  0.38446100  0.07097100  0.87142000  1
  O  O13  1  0.61553900  0.92902900  0.12858000  1
  O  O14  1  0.92902900  0.61553900  0.62858000  1
  O  O15  1  0.07097100  0.38446100  0.37142000  1
  O  O16  1  0.58325000  0.36832100  0.97327100  1
  O  O17  1  0.41675000  0.63167900  0.02672900  1
  O  O18  1  0.63167900  0.41675000  0.52672900  1
  O  O19  1  0.36832100  0.58325000  0.47327100  1
  O  O20  1  0.79379700  0.94950200  0.69045200  1
  O  O21  1  0.20620300  0.05049800  0.30954800  1
  O  O22  1  0.05049800  0.20620300  0.80954800  1
  O  O23  1  0.94950200  0.79379700  0.19045200  1
