# generated using pymatgen
data_SrFeP2O7
_symmetry_space_group_name_H-M   'P 1'
_cell_length_a   5.42514218
_cell_length_b   8.39130478
_cell_length_c   12.91671922
_cell_angle_alpha   90.00000000
_cell_angle_beta   90.21390158
_cell_angle_gamma   90.00000000
_symmetry_Int_Tables_number   1
_chemical_formula_structural   SrFeP2O7
_chemical_formula_sum   'Sr4 Fe4 P8 O28'
_cell_volume   588.01690638
_cell_formula_units_Z   4
loop_
 _symmetry_equiv_pos_site_id
 _symmetry_equiv_pos_as_xyz
  1  'x, y, z'
loop_
 _atom_site_type_symbol
 _atom_site_label
 _atom_site_symmetry_multiplicity
 _atom_site_fract_x
 _atom_site_fract_y
 _atom_site_fract_z
 _atom_site_occupancy
  O  O0  1  0.05163154  0.61973149  0.76663464  1
  O  O1  1  0.44836856  0.11973167  0.73336517  1
  O  O2  1  0.94836974  0.38026936  0.23336503  1
  O  O3  1  0.55163088  0.88026918  0.26663526  1
  O  O4  1  0.41038987  0.67016165  0.47056320  1
  O  O5  1  0.08960893  0.17016183  0.02943702  1
  O  O6  1  0.58960957  0.32983800  0.52943724  1
  O  O7  1  0.91039051  0.82983782  0.97056342  1
  O  O8  1  0.74020975  0.88429466  0.44848448  1
  O  O9  1  0.75979088  0.38429484  0.05151581  1
  O  O10  1  0.25978969  0.11570499  0.55151517  1
  O  O11  1  0.24021041  0.61570481  0.94848463  1
  O  O12  1  0.79327695  0.68779227  0.59050201  1
  O  O13  1  0.70672130  0.18779245  0.90949786  1
  O  O14  1  0.20672249  0.31220737  0.40949765  1
  O  O15  1  0.29327815  0.81220840  0.09050257  1
  O  O16  1  0.82416607  0.63743837  0.15157305  1
  O  O17  1  0.67583271  0.13743854  0.34842723  1
  O  O18  1  0.17583337  0.36256128  0.84842738  1
  O  O19  1  0.32416673  0.86256110  0.65157320  1
  O  O20  1  0.66423012  0.09658924  0.09723061  1
  O  O21  1  0.83577051  0.59659027  0.40276968  1
  O  O22  1  0.50968305  0.55964816  0.79229619  1
  O  O23  1  0.16423077  0.40341058  0.59722998  1
  O  O24  1  0.00968424  0.94035132  0.29229597  1
  O  O25  1  0.49031639  0.44035149  0.20770347  1
  O  O26  1  0.99031704  0.05964833  0.70770369  1
  O  O27  1  0.33576933  0.90341040  0.90276983  1
  P  P28  1  0.68880740  0.70006830  0.48025485  1
  P  P29  1  0.81119323  0.20006848  0.01974544  1
  P  P30  1  0.31119389  0.29993135  0.51974559  1
  P  P31  1  0.18880621  0.79993117  0.98025422  1
  P  P32  1  0.24936762  0.53724846  0.83398454  1
  P  P33  1  0.74936696  0.96275101  0.33398516  1
  P  P34  1  0.75063182  0.46275119  0.16601512  1
  P  P35  1  0.25063248  0.03724864  0.66601527  1
  Fe  Fe36  1  0.68131783  0.84915655  0.10519526  1
  Fe  Fe37  1  0.31868161  0.15084310  0.89480440  1
  Fe  Fe38  1  0.81868095  0.34915673  0.39480502  1
  Fe  Fe39  1  0.18131849  0.65084292  0.60519541  1
  Sr  Sr40  1  0.71337349  0.83684557  0.77775577  1
  Sr  Sr41  1  0.78662659  0.33684575  0.72224410  1
  Sr  Sr42  1  0.28662595  0.16315527  0.22224466  1
  Sr  Sr43  1  0.21337285  0.66315510  0.27775555  1
