# generated using pymatgen
data_Nd4Mn3NiO12
_symmetry_space_group_name_H-M   'P 1'
_cell_length_a   5.46275900
_cell_length_b   5.66814793
_cell_length_c   7.80979563
_cell_angle_alpha   89.81190472
_cell_angle_beta   89.62962664
_cell_angle_gamma   89.43158650
_symmetry_Int_Tables_number   1
_chemical_formula_structural   Nd4Mn3NiO12
_chemical_formula_sum   'Nd4 Mn3 Ni1 O12'
_cell_volume   241.80216809
_cell_formula_units_Z   1
loop_
 _symmetry_equiv_pos_site_id
 _symmetry_equiv_pos_as_xyz
  1  'x, y, z'
loop_
 _atom_site_type_symbol
 _atom_site_label
 _atom_site_symmetry_multiplicity
 _atom_site_fract_x
 _atom_site_fract_y
 _atom_site_fract_z
 _atom_site_occupancy
  Nd  Nd0  1  0.48769300  0.55441300  0.75250800  1
  Nd  Nd1  1  0.01580100  0.05892500  0.75396400  1
  Nd  Nd2  1  0.51230700  0.44558700  0.24749200  1
  Nd  Nd3  1  0.98419900  0.94107500  0.24603600  1
  Mn  Mn4  1  0.50000000  0.00000000  0.50000000  1
  Mn  Mn5  1  0.00000000  0.50000000  0.50000000  1
  Mn  Mn6  1  0.50000000  0.00000000  0.00000000  1
  Ni  Ni7  1  0.00000000  0.50000000  0.00000000  1
  O  O8  1  0.21517100  0.80111900  0.95558200  1
  O  O9  1  0.29248400  0.29826800  0.54845000  1
  O  O10  1  0.78270600  0.19476700  0.45043600  1
  O  O11  1  0.69684800  0.71530800  0.04684000  1
  O  O12  1  0.78482900  0.19888100  0.04441800  1
  O  O13  1  0.70751600  0.70173200  0.45155000  1
  O  O14  1  0.21729400  0.80523300  0.54956400  1
  O  O15  1  0.30315200  0.28469200  0.95316000  1
  O  O16  1  0.59149800  0.97533200  0.75724600  1
  O  O17  1  0.91353700  0.47762700  0.74336300  1
  O  O18  1  0.40850200  0.02466800  0.24275400  1
  O  O19  1  0.08646300  0.52237300  0.25663700  1
