# generated using pymatgen
data_Sr2FeO4
_symmetry_space_group_name_H-M   'P 1'
_cell_length_a   3.90949021
_cell_length_b   3.90949021
_cell_length_c   6.85942710
_cell_angle_alpha   106.55717875
_cell_angle_beta   106.55717880
_cell_angle_gamma   89.99999995
_symmetry_Int_Tables_number   1
_chemical_formula_structural   Sr2FeO4
_chemical_formula_sum   'Sr2 Fe1 O4'
_cell_volume   95.94928277
_cell_formula_units_Z   1
loop_
 _symmetry_equiv_pos_site_id
 _symmetry_equiv_pos_as_xyz
  1  'x, y, z'
loop_
 _atom_site_type_symbol
 _atom_site_label
 _atom_site_symmetry_multiplicity
 _atom_site_fract_x
 _atom_site_fract_y
 _atom_site_fract_z
 _atom_site_occupancy
  O  O0  1  0.84202371  0.84202347  0.68404828  1
  O  O1  1  0.15797589  0.15797424  0.31595037  1
  O  O2  1  0.99999998  0.49999961  0.00000049  1
  O  O3  1  0.50000026  0.00000000  0.00000060  1
  Fe  Fe4  1  0.00000000  0.00000000  0.00000000  1
  Sr  Sr5  1  0.64282806  0.64282710  0.28565501  1
  Sr  Sr6  1  0.35717177  0.35717330  0.71434411  1
