# generated using pymatgen
data_Sr6Zn(RuO6)2
_symmetry_space_group_name_H-M   'P 1'
_cell_length_a   8.81128200
_cell_length_b   8.81128200
_cell_length_c   6.98442076
_cell_angle_alpha   67.77710442
_cell_angle_beta   67.77710442
_cell_angle_gamma   36.85546252
_symmetry_Int_Tables_number   1
_chemical_formula_structural   Sr6Zn(RuO6)2
_chemical_formula_sum   'Sr6 Zn1 Ru2 O12'
_cell_volume   298.28513516
_cell_formula_units_Z   1
loop_
 _symmetry_equiv_pos_site_id
 _symmetry_equiv_pos_as_xyz
  1  'x, y, z'
loop_
 _atom_site_type_symbol
 _atom_site_label
 _atom_site_symmetry_multiplicity
 _atom_site_fract_x
 _atom_site_fract_y
 _atom_site_fract_z
 _atom_site_occupancy
  Sr  Sr0  1  0.20787600  0.20787600  0.70467500  1
  Sr  Sr1  1  0.88938100  0.88938100  0.70547000  1
  Sr  Sr2  1  0.54797400  0.54797400  0.71464200  1
  Sr  Sr3  1  0.79212400  0.79212400  0.29532500  1
  Sr  Sr4  1  0.45202600  0.45202600  0.28535800  1
  Sr  Sr5  1  0.11061900  0.11061900  0.29453000  1
  Zn  Zn6  1  0.00000000  0.00000000  0.00000000  1
  Ru  Ru7  1  0.67025400  0.67025400  0.00146900  1
  Ru  Ru8  1  0.32974600  0.32974600  0.99853100  1
  O  O9  1  0.27948500  0.27948500  0.32190700  1
  O  O10  1  0.94438600  0.94438600  0.33003000  1
  O  O11  1  0.61356600  0.61356600  0.32116700  1
  O  O12  1  0.72051500  0.72051500  0.67809300  1
  O  O13  1  0.38643400  0.38643400  0.67883300  1
  O  O14  1  0.05561400  0.05561400  0.66997000  1
  O  O15  1  0.00000000  0.50000000  0.00000000  1
  O  O16  1  0.65095300  0.17222300  0.00072700  1
  O  O17  1  0.34904700  0.82777700  0.99927300  1
  O  O18  1  0.50000000  0.00000000  0.00000000  1
  O  O19  1  0.17222300  0.65095300  0.00072700  1
  O  O20  1  0.82777700  0.34904700  0.99927300  1
