# generated using pymatgen
data_CuTeSeCl
_symmetry_space_group_name_H-M   'P 1'
_cell_length_a   5.04225500
_cell_length_b   8.02503400
_cell_length_c   12.11706602
_cell_angle_alpha   63.48728873
_cell_angle_beta   90.00000000
_cell_angle_gamma   90.00000000
_symmetry_Int_Tables_number   1
_chemical_formula_structural   CuTeSeCl
_chemical_formula_sum   'Cu4 Te4 Se4 Cl4'
_cell_volume   438.74511328
_cell_formula_units_Z   4
loop_
 _symmetry_equiv_pos_site_id
 _symmetry_equiv_pos_as_xyz
  1  'x, y, z'
loop_
 _atom_site_type_symbol
 _atom_site_label
 _atom_site_symmetry_multiplicity
 _atom_site_fract_x
 _atom_site_fract_y
 _atom_site_fract_z
 _atom_site_occupancy
  Cu  Cu0  1  0.86724500  0.82089000  0.24881600  1
  Cu  Cu1  1  0.13275500  0.17911000  0.75118400  1
  Cu  Cu2  1  0.36724500  0.17911000  0.25118400  1
  Cu  Cu3  1  0.63275500  0.82089000  0.74881600  1
  Te  Te4  1  0.51376500  0.72031200  0.14197800  1
  Te  Te5  1  0.48623500  0.27968800  0.85802200  1
  Te  Te6  1  0.01376500  0.27968800  0.35802200  1
  Te  Te7  1  0.98623500  0.72031200  0.64197800  1
  Se  Se8  1  0.69835500  0.41638300  0.15891800  1
  Se  Se9  1  0.30164500  0.58361700  0.84108200  1
  Se  Se10  1  0.19835500  0.58361700  0.34108200  1
  Se  Se11  1  0.80164500  0.41638300  0.65891800  1
  Cl  Cl12  1  0.64311000  0.92187500  0.37563300  1
  Cl  Cl13  1  0.35689000  0.07812500  0.62436700  1
  Cl  Cl14  1  0.14311000  0.07812500  0.12436700  1
  Cl  Cl15  1  0.85689000  0.92187500  0.87563300  1
