# generated using pymatgen
data_NaMn6P7O24
_symmetry_space_group_name_H-M   'P 1'
_cell_length_a   5.44000844
_cell_length_b   6.65253336
_cell_length_c   27.06500921
_cell_angle_alpha   90.00000000
_cell_angle_beta   90.00000000
_cell_angle_gamma   107.37521360
_symmetry_Int_Tables_number   1
_chemical_formula_structural   NaMn6P7O24
_chemical_formula_sum   'Na2 Mn12 P14 O48'
_cell_volume   934.78430820
_cell_formula_units_Z   2
loop_
 _symmetry_equiv_pos_site_id
 _symmetry_equiv_pos_as_xyz
  1  'x, y, z'
loop_
 _atom_site_type_symbol
 _atom_site_label
 _atom_site_symmetry_multiplicity
 _atom_site_fract_x
 _atom_site_fract_y
 _atom_site_fract_z
 _atom_site_occupancy
  O  O0  1  0.85512330  0.63111014  0.02228254  1
  O  O1  1  0.14487677  0.36889033  0.52228254  1
  O  O2  1  0.14487677  0.36889033  0.97771744  1
  O  O3  1  0.85512330  0.63111014  0.47771745  1
  O  O4  1  0.58835680  0.82427454  0.97470768  1
  O  O5  1  0.41164328  0.17572593  0.47470769  1
  O  O6  1  0.41164328  0.17572593  0.02529231  1
  O  O7  1  0.58835680  0.82427454  0.52529230  1
  O  O8  1  0.87116966  0.00326786  0.04769752  1
  O  O9  1  0.12882984  0.99673102  0.54769751  1
  O  O10  1  0.12882984  0.99673102  0.95230246  1
  O  O11  1  0.87116966  0.00326786  0.45230247  1
  O  O12  1  0.45585840  0.71147525  0.05870129  1
  O  O13  1  0.54414168  0.28852522  0.55870165  1
  O  O14  1  0.14207223  0.39692565  0.09502847  1
  O  O15  1  0.45585840  0.71147525  0.44129870  1
  O  O16  1  0.82635610  0.21081427  0.75000017  1
  O  O17  1  0.17364340  0.78918461  0.25000018  1
  O  O18  1  0.35788802  0.22089777  0.75000017  1
  O  O19  1  0.64211205  0.77910269  0.25000018  1
  O  O20  1  0.49554304  0.93374019  0.70372498  1
  O  O21  1  0.50445703  0.06626028  0.20372499  1
  O  O22  1  0.50445703  0.06626028  0.29627501  1
  O  O23  1  0.49554304  0.93374019  0.79627500  1
  O  O24  1  0.50728558  0.61198355  0.14951177  1
  O  O25  1  0.49271450  0.38801692  0.64951176  1
  O  O26  1  0.49271450  0.38801692  0.85048821  1
  O  O27  1  0.50728558  0.61198355  0.35048822  1
  O  O28  1  0.07001898  0.94654850  0.66497450  1
  O  O29  1  0.92998110  0.05345196  0.16497451  1
  O  O30  1  0.92998110  0.05345196  0.33502548  1
  O  O31  1  0.07001898  0.94654850  0.83502584  1
  O  O32  1  0.39009064  0.79182781  0.61979347  1
  O  O33  1  0.60990944  0.20817266  0.11979348  1
  O  O34  1  0.60990944  0.20817266  0.38020651  1
  O  O35  1  0.39009064  0.79182781  0.88020651  1
  O  O36  1  0.12277832  0.59925409  0.69409058  1
  O  O37  1  0.87722175  0.40074638  0.19409059  1
  O  O38  1  0.87722175  0.40074638  0.30590940  1
  O  O39  1  0.12277832  0.59925409  0.80590939  1
  O  O40  1  0.15315945  0.76597426  0.12247500  1
  O  O41  1  0.84684062  0.23402621  0.62247499  1
  O  O42  1  0.84684062  0.23402621  0.87752535  1
  O  O43  1  0.15315945  0.76597426  0.37752499  1
  O  O44  1  0.14207223  0.39692565  0.40497190  1
  O  O45  1  0.85792785  0.60307482  0.90497189  1
  O  O46  1  0.85792785  0.60307482  0.59502846  1
  O  O47  1  0.54414168  0.28852522  0.94129869  1
  Na  Na48  1  0.77863168  0.57012466  0.75000017  1
  Na  Na49  1  0.22136840  0.42987580  0.25000018  1
  P  P50  1  0.24941863  0.80694956  0.66791303  1
  P  P51  1  0.31494505  0.61724412  0.39025702  1
  P  P52  1  0.24941863  0.80694956  0.83208695  1
  P  P53  1  0.75058087  0.19304932  0.33208696  1
  P  P54  1  0.75058087  0.19304932  0.16791303  1
  P  P55  1  0.68505445  0.38275476  0.89025701  1
  P  P56  1  0.45838046  0.91317268  0.25000018  1
  P  P57  1  0.54161961  0.08682779  0.75000017  1
  P  P58  1  0.31494505  0.61724412  0.10974297  1
  P  P59  1  0.68505445  0.38275476  0.60974296  1
  P  P60  1  0.70829834  0.79499632  0.47528308  1
  P  P61  1  0.29170174  0.20500415  0.97528307  1
  P  P62  1  0.70829834  0.79499632  0.02471691  1
  P  P63  1  0.29170174  0.20500415  0.52471690  1
  Mn  Mn64  1  0.87283094  0.72090561  0.18283566  1
  Mn  Mn65  1  0.12717098  0.27909485  0.68283565  1
  Mn  Mn66  1  0.87283094  0.72090561  0.31716433  1
  Mn  Mn67  1  0.12717098  0.27909485  0.81716432  1
  Mn  Mn68  1  0.18663043  0.68565843  0.95517761  1
  Mn  Mn69  1  0.81336964  0.31434204  0.45517762  1
  Mn  Mn70  1  0.81336964  0.31434204  0.04482237  1
  Mn  Mn71  1  0.18663043  0.68565843  0.54482236  1
  Mn  Mn72  1  0.79202898  0.91290065  0.90225995  1
  Mn  Mn73  1  0.20797109  0.08709982  0.40225996  1
  Mn  Mn74  1  0.20797109  0.08709982  0.09774003  1
  Mn  Mn75  1  0.79202898  0.91290065  0.59774002  1
