# generated using pymatgen
data_SrGe2
_symmetry_space_group_name_H-M   'P 1'
_cell_length_a   6.59855300
_cell_length_b   8.81062800
_cell_length_c   11.26928000
_cell_angle_alpha   90.00000000
_cell_angle_beta   90.00000000
_cell_angle_gamma   90.00000000
_symmetry_Int_Tables_number   1
_chemical_formula_structural   SrGe2
_chemical_formula_sum   'Sr8 Ge16'
_cell_volume   655.16659198
_cell_formula_units_Z   8
loop_
 _symmetry_equiv_pos_site_id
 _symmetry_equiv_pos_as_xyz
  1  'x, y, z'
loop_
 _atom_site_type_symbol
 _atom_site_label
 _atom_site_symmetry_multiplicity
 _atom_site_fract_x
 _atom_site_fract_y
 _atom_site_fract_z
 _atom_site_occupancy
  Sr  Sr0  1  0.25000000  0.01514100  0.30680300  1
  Sr  Sr1  1  0.25000000  0.51514100  0.19319700  1
  Sr  Sr2  1  0.75000000  0.98485900  0.69319700  1
  Sr  Sr3  1  0.75000000  0.48485900  0.80680300  1
  Sr  Sr4  1  0.25000000  0.84356300  0.90622200  1
  Sr  Sr5  1  0.25000000  0.34356300  0.59377800  1
  Sr  Sr6  1  0.75000000  0.15643700  0.09377800  1
  Sr  Sr7  1  0.75000000  0.65643700  0.40622200  1
  Ge  Ge8  1  0.25000000  0.19319100  0.04737900  1
  Ge  Ge9  1  0.25000000  0.69319100  0.45262100  1
  Ge  Ge10  1  0.75000000  0.80680900  0.95262100  1
  Ge  Ge11  1  0.75000000  0.30680900  0.54737900  1
  Ge  Ge12  1  0.25000000  0.43417600  0.90785500  1
  Ge  Ge13  1  0.25000000  0.93417600  0.59214500  1
  Ge  Ge14  1  0.75000000  0.56582400  0.09214500  1
  Ge  Ge15  1  0.75000000  0.06582400  0.40785500  1
  Ge  Ge16  1  0.05509600  0.18996400  0.84927800  1
  Ge  Ge17  1  0.44490400  0.68996400  0.65072200  1
  Ge  Ge18  1  0.55509600  0.81003600  0.15072200  1
  Ge  Ge19  1  0.94490400  0.31003600  0.34927800  1
  Ge  Ge20  1  0.94490400  0.81003600  0.15072200  1
  Ge  Ge21  1  0.55509600  0.31003600  0.34927800  1
  Ge  Ge22  1  0.44490400  0.18996400  0.84927800  1
  Ge  Ge23  1  0.05509600  0.68996400  0.65072200  1
