# generated using pymatgen
data_Sm2Mn17C2
_symmetry_space_group_name_H-M   'P 1'
_cell_length_a   6.45702347
_cell_length_b   6.45702347
_cell_length_c   6.46727796
_cell_angle_alpha   83.73568522
_cell_angle_beta   83.73568522
_cell_angle_gamma   83.99749191
_symmetry_Int_Tables_number   1
_chemical_formula_structural   Sm2Mn17C2
_chemical_formula_sum   'Sm2 Mn17 C2'
_cell_volume   265.25658263
_cell_formula_units_Z   1
loop_
 _symmetry_equiv_pos_site_id
 _symmetry_equiv_pos_as_xyz
  1  'x, y, z'
loop_
 _atom_site_type_symbol
 _atom_site_label
 _atom_site_symmetry_multiplicity
 _atom_site_fract_x
 _atom_site_fract_y
 _atom_site_fract_z
 _atom_site_occupancy
  Sm  Sm0  1  0.64417600  0.64417600  0.65536100  1
  Sm  Sm1  1  0.35582400  0.35582400  0.34463900  1
  Mn  Mn2  1  0.90523000  0.90523000  0.90538200  1
  Mn  Mn3  1  0.09477000  0.09477000  0.09461800  1
  Mn  Mn4  1  0.27068600  0.72931400  0.00000000  1
  Mn  Mn5  1  0.71860200  0.99341400  0.28028000  1
  Mn  Mn6  1  0.00658600  0.28139800  0.71972000  1
  Mn  Mn7  1  0.28139800  0.00658600  0.71972000  1
  Mn  Mn8  1  0.99341400  0.71860200  0.28028000  1
  Mn  Mn9  1  0.72931400  0.27068600  0.00000000  1
  Mn  Mn10  1  0.86652000  0.33548000  0.33795000  1
  Mn  Mn11  1  0.34559900  0.34559900  0.87141500  1
  Mn  Mn12  1  0.33548000  0.86652000  0.33795000  1
  Mn  Mn13  1  0.13348000  0.66452000  0.66205000  1
  Mn  Mn14  1  0.65440100  0.65440100  0.12858500  1
  Mn  Mn15  1  0.66452000  0.13348000  0.66205000  1
  Mn  Mn16  1  0.00000000  0.00000000  0.50000000  1
  Mn  Mn17  1  0.00000000  0.50000000  0.00000000  1
  Mn  Mn18  1  0.50000000  0.00000000  0.00000000  1
  C  C19  1  0.50000000  0.00000000  0.50000000  1
  C  C20  1  0.00000000  0.50000000  0.50000000  1
