# generated using pymatgen
data_CsMoPO6
_symmetry_space_group_name_H-M   'P 1'
_cell_length_a   8.57345236
_cell_length_b   8.57345237
_cell_length_c   9.91000457
_cell_angle_alpha   111.65296294
_cell_angle_beta   111.65296293
_cell_angle_gamma   98.45237821
_symmetry_Int_Tables_number   1
_chemical_formula_structural   CsMoPO6
_chemical_formula_sum   'Cs4 Mo4 P4 O24'
_cell_volume   594.49194531
_cell_formula_units_Z   4
loop_
 _symmetry_equiv_pos_site_id
 _symmetry_equiv_pos_as_xyz
  1  'x, y, z'
loop_
 _atom_site_type_symbol
 _atom_site_label
 _atom_site_symmetry_multiplicity
 _atom_site_fract_x
 _atom_site_fract_y
 _atom_site_fract_z
 _atom_site_occupancy
  O  O0  1  0.59782286  0.67686682  0.40804550  1
  O  O1  1  0.26882129  0.68977770  0.09195472  1
  O  O2  1  0.32313439  0.40217721  0.09195446  1
  O  O3  1  0.31022218  0.73117933  0.40804600  1
  O  O4  1  0.40217631  0.32313353  0.59195408  1
  O  O5  1  0.73117914  0.31022266  0.90804527  1
  O  O6  1  0.67686604  0.59782315  0.90804553  1
  O  O7  1  0.68977825  0.26882102  0.59195499  1
  O  O8  1  0.66672311  0.51955590  0.12590923  1
  O  O9  1  0.39364680  0.04081358  0.37409061  1
  O  O10  1  0.48044423  0.33327700  0.37409141  1
  O  O11  1  0.95918591  0.60635265  0.12590860  1
  O  O12  1  0.92004175  0.06646999  0.61117539  1
  O  O13  1  0.45529470  0.80886751  0.88882585  1
  O  O14  1  0.93353027  0.07995852  0.88882469  1
  O  O15  1  0.19113346  0.54470567  0.61117551  1
  O  O16  1  0.07995868  0.93353037  0.38882561  1
  O  O17  1  0.54470573  0.19113285  0.11117515  1
  O  O18  1  0.33327732  0.48044446  0.87409076  1
  O  O19  1  0.80886697  0.45529469  0.38882549  1
  O  O20  1  0.04081409  0.39364638  0.87409083  1
  O  O21  1  0.51955620  0.66672336  0.62590959  1
  O  O22  1  0.60635320  0.95918545  0.62590881  1
  O  O23  1  0.06646891  0.92004183  0.11117489  1
  P  P24  1  0.50518464  0.75518477  0.51036910  1
  P  P25  1  0.24481514  0.49481506  0.98963069  1
  P  P26  1  0.49481579  0.24481559  0.48963089  1
  P  P27  1  0.75518486  0.50518397  0.01036873  1
  Mo  Mo28  1  0.59142593  0.40857371  0.24999966  1
  Mo  Mo29  1  0.15857463  0.84142550  0.24999982  1
  Mo  Mo30  1  0.84142581  0.15857486  0.75000017  1
  Mo  Mo31  1  0.40857407  0.59142532  0.74999976  1
  Cs  Cs32  1  0.06778179  0.31778120  0.25000009  1
  Cs  Cs33  1  0.68221877  0.93221801  0.25000040  1
  Cs  Cs34  1  0.93221821  0.68221783  0.74999934  1
  Cs  Cs35  1  0.31778123  0.06778102  0.75000004  1
