# generated using pymatgen
data_SnIBr
_symmetry_space_group_name_H-M   'P 1'
_cell_length_a   4.44032800
_cell_length_b   8.91685900
_cell_length_c   11.59904400
_cell_angle_alpha   90.00000000
_cell_angle_beta   90.00000000
_cell_angle_gamma   90.00000000
_symmetry_Int_Tables_number   1
_chemical_formula_structural   SnIBr
_chemical_formula_sum   'Sn4 I4 Br4'
_cell_volume   459.24998115
_cell_formula_units_Z   4
loop_
 _symmetry_equiv_pos_site_id
 _symmetry_equiv_pos_as_xyz
  1  'x, y, z'
loop_
 _atom_site_type_symbol
 _atom_site_label
 _atom_site_symmetry_multiplicity
 _atom_site_fract_x
 _atom_site_fract_y
 _atom_site_fract_z
 _atom_site_occupancy
  Sn  Sn0  1  0.25000000  0.62222800  0.64713000  1
  Sn  Sn1  1  0.75000000  0.37777200  0.35287000  1
  Sn  Sn2  1  0.75000000  0.87777200  0.14713000  1
  Sn  Sn3  1  0.25000000  0.12222800  0.85287000  1
  I  I4  1  0.25000000  0.51057200  0.19422700  1
  I  I5  1  0.75000000  0.48942800  0.80577300  1
  I  I6  1  0.75000000  0.98942800  0.69422700  1
  I  I7  1  0.25000000  0.01057200  0.30577300  1
  Br  Br8  1  0.25000000  0.83764100  0.95725900  1
  Br  Br9  1  0.75000000  0.16235900  0.04274100  1
  Br  Br10  1  0.75000000  0.66235900  0.45725900  1
  Br  Br11  1  0.25000000  0.33764100  0.54274100  1
