# generated using pymatgen
data_TmCoGe2
_symmetry_space_group_name_H-M   'P 1'
_cell_length_a   8.39580962
_cell_length_b   8.39580962
_cell_length_c   4.24140400
_cell_angle_alpha   90.00000000
_cell_angle_beta   90.00000000
_cell_angle_gamma   152.03369052
_symmetry_Int_Tables_number   1
_chemical_formula_structural   TmCoGe2
_chemical_formula_sum   'Tm2 Co2 Ge4'
_cell_volume   140.20499136
_cell_formula_units_Z   2
loop_
 _symmetry_equiv_pos_site_id
 _symmetry_equiv_pos_as_xyz
  1  'x, y, z'
loop_
 _atom_site_type_symbol
 _atom_site_label
 _atom_site_symmetry_multiplicity
 _atom_site_fract_x
 _atom_site_fract_y
 _atom_site_fract_z
 _atom_site_occupancy
  Tm  Tm0  1  0.89171200  0.10828800  0.25000000  1
  Tm  Tm1  1  0.10828800  0.89171200  0.75000000  1
  Co  Co2  1  0.68066200  0.31933800  0.25000000  1
  Co  Co3  1  0.31933800  0.68066200  0.75000000  1
  Ge  Ge4  1  0.54232400  0.45767600  0.25000000  1
  Ge  Ge5  1  0.45767600  0.54232400  0.75000000  1
  Ge  Ge6  1  0.25550500  0.74449500  0.25000000  1
  Ge  Ge7  1  0.74449500  0.25550500  0.75000000  1
