# generated using pymatgen
data_BaDy2CoO5
_symmetry_space_group_name_H-M   'P 1'
_cell_length_a   6.74945246
_cell_length_b   6.74945246
_cell_length_c   6.74945246
_cell_angle_alpha   147.48103529
_cell_angle_beta   128.82549322
_cell_angle_gamma   61.95505321
_symmetry_Int_Tables_number   1
_chemical_formula_structural   BaDy2CoO5
_chemical_formula_sum   'Ba1 Dy2 Co1 O5'
_cell_volume   127.50905006
_cell_formula_units_Z   1
loop_
 _symmetry_equiv_pos_site_id
 _symmetry_equiv_pos_as_xyz
  1  'x, y, z'
loop_
 _atom_site_type_symbol
 _atom_site_label
 _atom_site_symmetry_multiplicity
 _atom_site_fract_x
 _atom_site_fract_y
 _atom_site_fract_z
 _atom_site_occupancy
  Ba  Ba0  1  0.50000000  0.50000000  0.00000000  1
  Dy  Dy1  1  0.79654300  0.29654300  0.50000000  1
  Dy  Dy2  1  0.20345700  0.70345700  0.50000000  1
  Co  Co3  1  0.00000000  0.00000000  0.00000000  1
  O  O4  1  0.90983700  0.15133100  0.75850700  1
  O  O5  1  0.60717600  0.84866900  0.75850700  1
  O  O6  1  0.09016300  0.84866900  0.24149300  1
  O  O7  1  0.39282400  0.15133100  0.24149300  1
  O  O8  1  0.00000000  0.50000000  0.50000000  1
