# generated using pymatgen
data_Sr2TaInO6
_symmetry_space_group_name_H-M   'P 1'
_cell_length_a   5.79278320
_cell_length_b   5.79278320
_cell_length_c   5.83799595
_cell_angle_alpha   59.84899754
_cell_angle_beta   59.84899754
_cell_angle_gamma   60.18609907
_symmetry_Int_Tables_number   1
_chemical_formula_structural   Sr2TaInO6
_chemical_formula_sum   'Sr2 Ta1 In1 O6'
_cell_volume   138.39888844
_cell_formula_units_Z   1
loop_
 _symmetry_equiv_pos_site_id
 _symmetry_equiv_pos_as_xyz
  1  'x, y, z'
loop_
 _atom_site_type_symbol
 _atom_site_label
 _atom_site_symmetry_multiplicity
 _atom_site_fract_x
 _atom_site_fract_y
 _atom_site_fract_z
 _atom_site_occupancy
  Sr  Sr0  1  0.74878500  0.74878500  0.74192500  1
  Sr  Sr1  1  0.25121500  0.25121500  0.25807500  1
  Ta  Ta2  1  0.50000000  0.50000000  0.50000000  1
  In  In3  1  0.00000000  0.00000000  0.00000000  1
  O  O4  1  0.73846400  0.73846400  0.18142200  1
  O  O5  1  0.26153600  0.26153600  0.81857800  1
  O  O6  1  0.30321000  0.78402200  0.69454900  1
  O  O7  1  0.21597800  0.69679000  0.30545100  1
  O  O8  1  0.69679000  0.21597800  0.30545100  1
  O  O9  1  0.78402200  0.30321000  0.69454900  1
