# generated using pymatgen
data_Er2(Ni5B3)3
_symmetry_space_group_name_H-M   'P 1'
_cell_length_a   9.79892654
_cell_length_b   9.79892654
_cell_length_c   11.22329468
_cell_angle_alpha   90.00000000
_cell_angle_beta   90.00000000
_cell_angle_gamma   107.78450470
_symmetry_Int_Tables_number   1
_chemical_formula_structural   Er2(Ni5B3)3
_chemical_formula_sum   'Er8 Ni60 B36'
_cell_volume   1026.15043612
_cell_formula_units_Z   4
loop_
 _symmetry_equiv_pos_site_id
 _symmetry_equiv_pos_as_xyz
  1  'x, y, z'
loop_
 _atom_site_type_symbol
 _atom_site_label
 _atom_site_symmetry_multiplicity
 _atom_site_fract_x
 _atom_site_fract_y
 _atom_site_fract_z
 _atom_site_occupancy
  Er  Er0  1  0.25959708  0.25959708  0.95803655  1
  Er  Er1  1  0.74040292  0.74040292  0.04196345  1
  Er  Er2  1  0.24040292  0.24040292  0.45803655  1
  Er  Er3  1  0.75959708  0.75959708  0.54196345  1
  Er  Er4  1  0.19065102  0.69065102  0.75000000  1
  Er  Er5  1  0.30934898  0.80934898  0.25000000  1
  Er  Er6  1  0.80934898  0.30934898  0.25000000  1
  Er  Er7  1  0.69065102  0.19065102  0.75000000  1
  Ni  Ni8  1  0.50000000  0.50000000  -0.00000000  1
  Ni  Ni9  1  0.00000000  -0.00000000  0.50000000  1
  Ni  Ni10  1  0.50000000  0.50000000  0.50000000  1
  Ni  Ni11  1  0.00000000  -0.00000000  -0.00000000  1
  Ni  Ni12  1  0.23380628  0.23380628  0.71209689  1
  Ni  Ni13  1  0.76619372  0.76619372  0.28790311  1
  Ni  Ni14  1  0.26619372  0.26619372  0.21209689  1
  Ni  Ni15  1  0.73380628  0.73380628  0.78790311  1
  Ni  Ni16  1  0.93065329  0.43065329  0.75000000  1
  Ni  Ni17  1  0.56934671  0.06934671  0.25000000  1
  Ni  Ni18  1  0.06934671  0.56934671  0.25000000  1
  Ni  Ni19  1  0.43065329  0.93065329  0.75000000  1
  Ni  Ni20  1  0.98894580  0.18227147  0.83976802  1
  Ni  Ni21  1  0.81772853  0.01105420  0.16023198  1
  Ni  Ni22  1  0.31772853  0.51105420  0.33976802  1
  Ni  Ni23  1  0.48894580  0.68227147  0.66023198  1
  Ni  Ni24  1  0.01105420  0.81772853  0.16023198  1
  Ni  Ni25  1  0.18227147  0.98894580  0.83976802  1
  Ni  Ni26  1  0.68227147  0.48894580  0.66023198  1
  Ni  Ni27  1  0.51105420  0.31772853  0.33976802  1
  Ni  Ni28  1  0.25603609  0.47022646  0.59675304  1
  Ni  Ni29  1  0.52977354  0.74396391  0.40324696  1
  Ni  Ni30  1  0.02977354  0.24396391  0.09675304  1
  Ni  Ni31  1  0.75603609  0.97022646  0.90324696  1
  Ni  Ni32  1  0.74396391  0.52977354  0.40324696  1
  Ni  Ni33  1  0.47022646  0.25603609  0.59675304  1
  Ni  Ni34  1  0.97022646  0.75603609  0.90324696  1
  Ni  Ni35  1  0.24396391  0.02977354  0.09675304  1
  Ni  Ni36  1  0.99576686  0.22766429  0.61796814  1
  Ni  Ni37  1  0.77233571  0.00423314  0.38203186  1
  Ni  Ni38  1  0.27233571  0.50423314  0.11796814  1
  Ni  Ni39  1  0.49576686  0.72766429  0.88203186  1
  Ni  Ni40  1  0.00423314  0.77233571  0.38203186  1
  Ni  Ni41  1  0.22766429  0.99576686  0.61796814  1
  Ni  Ni42  1  0.72766429  0.49576686  0.88203186  1
  Ni  Ni43  1  0.50423314  0.27233571  0.11796814  1
  Ni  Ni44  1  0.10692304  0.44614963  0.91544724  1
  Ni  Ni45  1  0.55385037  0.89307696  0.08455276  1
  Ni  Ni46  1  0.05385037  0.39307696  0.41544724  1
  Ni  Ni47  1  0.60692304  0.94614963  0.58455276  1
  Ni  Ni48  1  0.89307696  0.55385037  0.08455276  1
  Ni  Ni49  1  0.44614963  0.10692304  0.91544724  1
  Ni  Ni50  1  0.94614963  0.60692304  0.58455276  1
  Ni  Ni51  1  0.39307696  0.05385037  0.41544724  1
  Ni  Ni52  1  0.33073848  0.48916137  0.80667672  1
  Ni  Ni53  1  0.51083863  0.66926152  0.19332328  1
  Ni  Ni54  1  0.01083863  0.16926152  0.30667672  1
  Ni  Ni55  1  0.83073848  0.98916137  0.69332328  1
  Ni  Ni56  1  0.66926152  0.51083863  0.19332328  1
  Ni  Ni57  1  0.48916137  0.33073848  0.80667672  1
  Ni  Ni58  1  0.98916137  0.83073848  0.69332328  1
  Ni  Ni59  1  0.16926152  0.01083863  0.30667672  1
  Ni  Ni60  1  0.83757149  0.36329503  0.53003033  1
  Ni  Ni61  1  0.63670497  0.16242851  0.46996967  1
  Ni  Ni62  1  0.13670497  0.66242851  0.03003033  1
  Ni  Ni63  1  0.33757149  0.86329503  0.96996967  1
  Ni  Ni64  1  0.16242851  0.63670497  0.46996967  1
  Ni  Ni65  1  0.36329503  0.83757149  0.53003033  1
  Ni  Ni66  1  0.86329503  0.33757149  0.96996967  1
  Ni  Ni67  1  0.66242851  0.13670497  0.03003033  1
  B  B68  1  0.36470034  0.63529966  0.50000000  1
  B  B69  1  0.86470034  0.13529966  -0.00000000  1
  B  B70  1  0.63529966  0.36470034  0.50000000  1
  B  B71  1  0.13529966  0.86470034  -0.00000000  1
  B  B72  1  0.45187882  0.45187882  0.67199573  1
  B  B73  1  0.54812118  0.54812118  0.32800427  1
  B  B74  1  0.04812118  0.04812118  0.17199573  1
  B  B75  1  0.95187882  0.95187882  0.82800427  1
  B  B76  1  0.05666823  0.05666823  0.69947354  1
  B  B77  1  0.94333177  0.94333177  0.30052646  1
  B  B78  1  0.44333177  0.44333177  0.19947354  1
  B  B79  1  0.55666823  0.55666823  0.80052646  1
  B  B80  1  0.12014397  0.37827138  0.74483375  1
  B  B81  1  0.62172862  0.87985603  0.25516625  1
  B  B82  1  0.12172862  0.37985603  0.24483375  1
  B  B83  1  0.62014397  0.87827138  0.75516625  1
  B  B84  1  0.87985603  0.62172862  0.25516625  1
  B  B85  1  0.37827138  0.12014397  0.74483375  1
  B  B86  1  0.87827138  0.62014397  0.75516625  1
  B  B87  1  0.37985603  0.12172862  0.24483375  1
  B  B88  1  0.29790640  0.59336104  0.94918575  1
  B  B89  1  0.40663896  0.70209360  0.05081425  1
  B  B90  1  0.90663896  0.20209360  0.44918575  1
  B  B91  1  0.79790640  0.09336104  0.55081425  1
  B  B92  1  0.70209360  0.40663896  0.05081425  1
  B  B93  1  0.59336104  0.29790640  0.94918575  1
  B  B94  1  0.09336104  0.79790640  0.55081425  1
  B  B95  1  0.20209360  0.90663896  0.44918575  1
  B  B96  1  0.04899863  0.45032659  0.60018775  1
  B  B97  1  0.54967341  0.95100137  0.39981225  1
  B  B98  1  0.04967341  0.45100137  0.10018775  1
  B  B99  1  0.54899863  0.95032659  0.89981225  1
  B  B100  1  0.95100137  0.54967341  0.39981225  1
  B  B101  1  0.45032659  0.04899863  0.60018775  1
  B  B102  1  0.95032659  0.54899863  0.89981225  1
  B  B103  1  0.45100137  0.04967341  0.10018775  1
