# generated using pymatgen
data_USbRu
_symmetry_space_group_name_H-M   'P 1'
_cell_length_a   3.98588600
_cell_length_b   7.39586701
_cell_length_c   7.40393318
_cell_angle_alpha   119.96397442
_cell_angle_beta   90.00000000
_cell_angle_gamma   90.00000000
_symmetry_Int_Tables_number   1
_chemical_formula_structural   USbRu
_chemical_formula_sum   'U3 Sb3 Ru3'
_cell_volume   189.08828850
_cell_formula_units_Z   3
loop_
 _symmetry_equiv_pos_site_id
 _symmetry_equiv_pos_as_xyz
  1  'x, y, z'
loop_
 _atom_site_type_symbol
 _atom_site_label
 _atom_site_symmetry_multiplicity
 _atom_site_fract_x
 _atom_site_fract_y
 _atom_site_fract_z
 _atom_site_occupancy
  U  U0  1  0.50000000  0.58643700  0.00000000  1
  U  U1  1  0.50000000  0.41393000  0.41379600  1
  U  U2  1  0.50000000  0.00013500  0.58620400  1
  Sb  Sb3  1  0.00000000  0.25762500  0.00000000  1
  Sb  Sb4  1  0.00000000  0.74225300  0.74228600  1
  Sb  Sb5  1  0.00000000  0.99996700  0.25771400  1
  Ru  Ru6  1  0.00000000  0.33316700  0.66665800  1
  Ru  Ru7  1  0.00000000  0.66651000  0.33334200  1
  Ru  Ru8  1  0.50000000  0.99987500  0.00000000  1
