# generated using pymatgen
data_Ba3ReN3
_symmetry_space_group_name_H-M   'P 1'
_cell_length_a   8.27959178
_cell_length_b   8.27884423
_cell_length_c   5.77765411
_cell_angle_alpha   90.00000000
_cell_angle_beta   90.00000000
_cell_angle_gamma   119.99592044
_symmetry_Int_Tables_number   1
_chemical_formula_structural   Ba3ReN3
_chemical_formula_sum   'Ba6 Re2 N6'
_cell_volume   342.98778792
_cell_formula_units_Z   2
loop_
 _symmetry_equiv_pos_site_id
 _symmetry_equiv_pos_as_xyz
  1  'x, y, z'
loop_
 _atom_site_type_symbol
 _atom_site_label
 _atom_site_symmetry_multiplicity
 _atom_site_fract_x
 _atom_site_fract_y
 _atom_site_fract_z
 _atom_site_occupancy
  Ba  Ba0  1  0.89983355  0.63987165  0.25000000  1
  Ba  Ba1  1  0.74005025  0.10012212  0.25000000  1
  Ba  Ba2  1  0.36012187  0.26006733  0.25000000  1
  Ba  Ba3  1  0.10016645  0.36012835  0.75000000  1
  Ba  Ba4  1  0.25994975  0.89987788  0.75000000  1
  Ba  Ba5  1  0.63987813  0.73993267  0.75000000  1
  Re  Re6  1  0.66673787  0.33341088  0.75000000  1
  Re  Re7  1  0.33326213  0.66658912  0.25000000  1
  N  N8  1  0.88165342  0.56315298  0.75000000  1
  N  N9  1  0.68151281  0.11844932  0.75000000  1
  N  N10  1  0.43683080  0.31848828  0.75000000  1
  N  N11  1  0.11834658  0.43684702  0.25000000  1
  N  N12  1  0.31848719  0.88155068  0.25000000  1
  N  N13  1  0.56316920  0.68151172  0.25000000  1
