# generated using pymatgen
data_Hf3TaFe8
_symmetry_space_group_name_H-M   'P 1'
_cell_length_a   4.92642508
_cell_length_b   4.92642508
_cell_length_c   7.99647100
_cell_angle_alpha   90.00000000
_cell_angle_beta   90.00000000
_cell_angle_gamma   119.99998760
_symmetry_Int_Tables_number   1
_chemical_formula_structural   Hf3TaFe8
_chemical_formula_sum   'Hf3 Ta1 Fe8'
_cell_volume   168.07101275
_cell_formula_units_Z   1
loop_
 _symmetry_equiv_pos_site_id
 _symmetry_equiv_pos_as_xyz
  1  'x, y, z'
loop_
 _atom_site_type_symbol
 _atom_site_label
 _atom_site_symmetry_multiplicity
 _atom_site_fract_x
 _atom_site_fract_y
 _atom_site_fract_z
 _atom_site_occupancy
  Hf  Hf0  1  0.33333300  0.66666700  0.43970000  1
  Hf  Hf1  1  0.33333300  0.66666700  0.06261000  1
  Hf  Hf2  1  0.66666700  0.33333300  0.93518900  1
  Ta  Ta3  1  0.66666700  0.33333300  0.56264900  1
  Fe  Fe4  1  0.00000000  0.00000000  0.50081100  1
  Fe  Fe5  1  0.00000000  0.00000000  0.99971500  1
  Fe  Fe6  1  0.16779600  0.33559200  0.74760900  1
  Fe  Fe7  1  0.16779600  0.83220400  0.74760900  1
  Fe  Fe8  1  0.66440800  0.83220400  0.74760900  1
  Fe  Fe9  1  0.83157900  0.66315800  0.25216800  1
  Fe  Fe10  1  0.83157900  0.16842100  0.25216800  1
  Fe  Fe11  1  0.33684200  0.16842100  0.25216800  1
