# generated using pymatgen
data_Ho7(TeAu)2
_symmetry_space_group_name_H-M   'P 1'
_cell_length_a   9.33034760
_cell_length_b   9.33034760
_cell_length_c   17.12782599
_cell_angle_alpha   76.08088231
_cell_angle_beta   76.08088231
_cell_angle_gamma   24.73424670
_symmetry_Int_Tables_number   1
_chemical_formula_structural   Ho7(TeAu)2
_chemical_formula_sum   'Ho14 Te4 Au4'
_cell_volume   604.66433244
_cell_formula_units_Z   2
loop_
 _symmetry_equiv_pos_site_id
 _symmetry_equiv_pos_as_xyz
  1  'x, y, z'
loop_
 _atom_site_type_symbol
 _atom_site_label
 _atom_site_symmetry_multiplicity
 _atom_site_fract_x
 _atom_site_fract_y
 _atom_site_fract_z
 _atom_site_occupancy
  Ho  Ho0  1  0.00100000  0.00100000  0.66723200  1
  Ho  Ho1  1  0.99900000  0.99900000  0.33276800  1
  Ho  Ho2  1  0.17546600  0.17546600  0.46835900  1
  Ho  Ho3  1  0.82453400  0.82453400  0.53164100  1
  Ho  Ho4  1  0.19142700  0.19142700  0.68035700  1
  Ho  Ho5  1  0.80857300  0.80857300  0.31964300  1
  Ho  Ho6  1  0.33817700  0.33817700  0.98055900  1
  Ho  Ho7  1  0.66182300  0.66182300  0.01944100  1
  Ho  Ho8  1  0.57420800  0.57420800  0.82918200  1
  Ho  Ho9  1  0.42579200  0.42579200  0.17081800  1
  Ho  Ho10  1  0.78065300  0.78065300  0.80544700  1
  Ho  Ho11  1  0.21934700  0.21934700  0.19455300  1
  Ho  Ho12  1  0.50000000  0.50000000  0.50000000  1
  Ho  Ho13  1  0.00000000  0.00000000  0.00000000  1
  Te  Te14  1  0.36613900  0.36613900  0.66232800  1
  Te  Te15  1  0.63386100  0.63386100  0.33767200  1
  Te  Te16  1  0.06540900  0.06540900  0.14979300  1
  Te  Te17  1  0.93459100  0.93459100  0.85020700  1
  Au  Au18  1  0.17023200  0.17023200  0.88893400  1
  Au  Au19  1  0.82976800  0.82976800  0.11106600  1
  Au  Au20  1  0.38125600  0.38125600  0.39966000  1
  Au  Au21  1  0.61874400  0.61874400  0.60034000  1
