# generated using pymatgen
data_YEr(SnPd2)2
_symmetry_space_group_name_H-M   'P 1'
_cell_length_a   8.28866580
_cell_length_b   8.28866580
_cell_length_c   8.28866616
_cell_angle_alpha   33.72511180
_cell_angle_beta   33.72511180
_cell_angle_gamma   33.72511299
_symmetry_Int_Tables_number   1
_chemical_formula_structural   YEr(SnPd2)2
_chemical_formula_sum   'Y1 Er1 Sn2 Pd4'
_cell_volume   156.39755818
_cell_formula_units_Z   1
loop_
 _symmetry_equiv_pos_site_id
 _symmetry_equiv_pos_as_xyz
  1  'x, y, z'
loop_
 _atom_site_type_symbol
 _atom_site_label
 _atom_site_symmetry_multiplicity
 _atom_site_fract_x
 _atom_site_fract_y
 _atom_site_fract_z
 _atom_site_occupancy
  Y  Y0  1  0.50000000  0.50000000  0.50000000  1
  Er  Er1  1  0.00000000  0.00000000  0.00000000  1
  Sn  Sn2  1  0.25003700  0.25003700  0.25003700  1
  Sn  Sn3  1  0.74996300  0.74996300  0.74996300  1
  Pd  Pd4  1  0.62550800  0.62550800  0.62550800  1
  Pd  Pd5  1  0.12469600  0.12469600  0.12469600  1
  Pd  Pd6  1  0.87530400  0.87530400  0.87530400  1
  Pd  Pd7  1  0.37449200  0.37449200  0.37449200  1
