# generated using pymatgen
data_Eu2Mo2WO12
_symmetry_space_group_name_H-M   'P 1'
_cell_length_a   7.04089012
_cell_length_b   7.04089012
_cell_length_c   11.77297031
_cell_angle_alpha   79.34179968
_cell_angle_beta   79.34179968
_cell_angle_gamma   111.83571956
_symmetry_Int_Tables_number   1
_chemical_formula_structural   Eu2Mo2WO12
_chemical_formula_sum   'Eu4 Mo4 W2 O24'
_cell_volume   511.40432504
_cell_formula_units_Z   2
loop_
 _symmetry_equiv_pos_site_id
 _symmetry_equiv_pos_as_xyz
  1  'x, y, z'
loop_
 _atom_site_type_symbol
 _atom_site_label
 _atom_site_symmetry_multiplicity
 _atom_site_fract_x
 _atom_site_fract_y
 _atom_site_fract_z
 _atom_site_occupancy
  Eu  Eu0  1  0.19652800  0.45329900  0.09238200  1
  Eu  Eu1  1  0.54670100  0.80347200  0.40761800  1
  Eu  Eu2  1  0.80347200  0.54670100  0.90761800  1
  Eu  Eu3  1  0.45329900  0.19652800  0.59238200  1
  Mo  Mo4  1  0.02559500  0.30351400  0.44726600  1
  Mo  Mo5  1  0.69648600  0.97440500  0.05273400  1
  Mo  Mo6  1  0.97440500  0.69648600  0.55273400  1
  Mo  Mo7  1  0.30351400  0.02559500  0.94726600  1
  W  W8  1  0.62052400  0.37947600  0.25000000  1
  W  W9  1  0.37947600  0.62052400  0.75000000  1
  O  O10  1  0.73866700  0.13835400  0.46122200  1
  O  O11  1  0.86164600  0.26133300  0.03877800  1
  O  O12  1  0.26133300  0.86164600  0.53877800  1
  O  O13  1  0.13835400  0.73866700  0.96122200  1
  O  O14  1  0.51845100  0.09413300  0.28694000  1
  O  O15  1  0.90586700  0.48154900  0.21306000  1
  O  O16  1  0.48154900  0.90586700  0.71306000  1
  O  O17  1  0.09413300  0.51845100  0.78694000  1
  O  O18  1  0.54572400  0.46344400  0.11385100  1
  O  O19  1  0.53655600  0.45427600  0.38614900  1
  O  O20  1  0.45427600  0.53655600  0.88614900  1
  O  O21  1  0.46344400  0.54572400  0.61385100  1
  O  O22  1  0.88001800  0.81063600  0.44239700  1
  O  O23  1  0.18936400  0.11998200  0.05760300  1
  O  O24  1  0.11998200  0.18936400  0.55760300  1
  O  O25  1  0.81063600  0.88001800  0.94239700  1
  O  O26  1  0.15415900  0.27982100  0.30770100  1
  O  O27  1  0.72017900  0.84584100  0.19229900  1
  O  O28  1  0.84584100  0.72017900  0.69229900  1
  O  O29  1  0.27982100  0.15415900  0.80770100  1
  O  O30  1  0.40078300  0.82974400  0.08380300  1
  O  O31  1  0.17025600  0.59921700  0.41619700  1
  O  O32  1  0.59921700  0.17025600  0.91619700  1
  O  O33  1  0.82974400  0.40078300  0.58380300  1
