# generated using pymatgen
data_KV3P4O17
_symmetry_space_group_name_H-M   'P 1'
_cell_length_a   7.98087300
_cell_length_b   10.13357400
_cell_length_c   16.63049500
_cell_angle_alpha   90.00000000
_cell_angle_beta   90.00000000
_cell_angle_gamma   90.00000000
_symmetry_Int_Tables_number   1
_chemical_formula_structural   KV3P4O17
_chemical_formula_sum   'K4 V12 P16 O68'
_cell_volume   1344.98741038
_cell_formula_units_Z   4
loop_
 _symmetry_equiv_pos_site_id
 _symmetry_equiv_pos_as_xyz
  1  'x, y, z'
loop_
 _atom_site_type_symbol
 _atom_site_label
 _atom_site_symmetry_multiplicity
 _atom_site_fract_x
 _atom_site_fract_y
 _atom_site_fract_z
 _atom_site_occupancy
  K  K0  1  0.99474600  0.55020600  0.82115200  1
  K  K1  1  0.50525400  0.44979400  0.32115200  1
  K  K2  1  0.00525400  0.05020600  0.67884800  1
  K  K3  1  0.49474600  0.94979400  0.17884800  1
  V  V4  1  0.20923300  0.74805600  0.99357600  1
  V  V5  1  0.71341900  0.81578700  0.34777400  1
  V  V6  1  0.78658100  0.18421300  0.84777400  1
  V  V7  1  0.28658100  0.31578700  0.15222600  1
  V  V8  1  0.21341900  0.68421300  0.65222600  1
  V  V9  1  0.70923300  0.75194400  0.00642400  1
  V  V10  1  0.79076700  0.24805600  0.50642400  1
  V  V11  1  0.29076700  0.25194400  0.49357600  1
  V  V12  1  0.71247500  0.68261100  0.65321000  1
  V  V13  1  0.21247500  0.81738900  0.34679000  1
  V  V14  1  0.28752500  0.18261100  0.84679000  1
  V  V15  1  0.78752500  0.31738900  0.15321000  1
  P  P16  1  0.30916500  0.36701200  0.68556900  1
  P  P17  1  0.19083500  0.63298800  0.18556900  1
  P  P18  1  0.69083500  0.86701200  0.81443100  1
  P  P19  1  0.80916500  0.13298800  0.31443100  1
  P  P20  1  0.30523300  0.93471900  0.53441400  1
  P  P21  1  0.80523300  0.56528100  0.46558600  1
  P  P22  1  0.69476700  0.43471900  0.96558600  1
  P  P23  1  0.19476700  0.06528100  0.03441400  1
  P  P24  1  0.30944500  0.86616500  0.81550400  1
  P  P25  1  0.80944500  0.63383500  0.18449600  1
  P  P26  1  0.69055500  0.36616500  0.68449600  1
  P  P27  1  0.19055500  0.13383500  0.31550400  1
  P  P28  1  0.30786700  0.43324700  0.96704900  1
  P  P29  1  0.80786700  0.06675300  0.03295100  1
  P  P30  1  0.69213300  0.93324700  0.53295100  1
  P  P31  1  0.19213300  0.56675300  0.46704900  1
  O  O32  1  0.50171000  0.40175600  0.97715100  1
  O  O33  1  0.00171000  0.09824400  0.02284900  1
  O  O34  1  0.49829000  0.90175600  0.52284900  1
  O  O35  1  0.99829000  0.59824400  0.47715100  1
  O  O36  1  0.50051200  0.38032600  0.71265200  1
  O  O37  1  0.00051200  0.11967400  0.28734800  1
  O  O38  1  0.49948800  0.88032600  0.78734800  1
  O  O39  1  0.99948800  0.61967400  0.21265200  1
  O  O40  1  0.24649400  0.87022200  0.61229200  1
  O  O41  1  0.74649400  0.62977800  0.38770800  1
  O  O42  1  0.75350600  0.37022200  0.88770800  1
  O  O43  1  0.25350600  0.12977800  0.11229200  1
  O  O44  1  0.22843800  0.75623800  0.76724800  1
  O  O45  1  0.72843800  0.74376200  0.23275200  1
  O  O46  1  0.77156200  0.25623800  0.73275200  1
  O  O47  1  0.27156200  0.24376200  0.26724800  1
  O  O48  1  0.27424800  0.61229300  0.54431700  1
  O  O49  1  0.77424800  0.88770700  0.45568300  1
  O  O50  1  0.72575200  0.11229300  0.95568300  1
  O  O51  1  0.22575200  0.38770700  0.04431700  1
  O  O52  1  0.22993700  0.50070900  0.70117400  1
  O  O53  1  0.72993700  0.99929100  0.29882600  1
  O  O54  1  0.77006300  0.00070900  0.79882600  1
  O  O55  1  0.27006300  0.49929100  0.20117400  1
  O  O56  1  0.01772000  0.74213500  0.96046000  1
  O  O57  1  0.31750200  0.82949300  0.90594300  1
  O  O58  1  0.68249800  0.32949300  0.59405700  1
  O  O59  1  0.18249800  0.17050700  0.40594300  1
  O  O60  1  0.29076300  0.58345700  0.95271300  1
  O  O61  1  0.79076300  0.91654300  0.04728700  1
  O  O62  1  0.70923700  0.08345700  0.54728700  1
  O  O63  1  0.20923700  0.41654300  0.45271300  1
  O  O64  1  0.99451400  0.31810100  0.16217600  1
  O  O65  1  0.49451400  0.18189900  0.83782400  1
  O  O66  1  0.00548600  0.81810100  0.33782400  1
  O  O67  1  0.50548600  0.68189900  0.66217600  1
  O  O68  1  0.73216800  0.24386500  0.26487800  1
  O  O69  1  0.23216800  0.25613500  0.73512200  1
  O  O70  1  0.26783200  0.74386500  0.23512200  1
  O  O71  1  0.76783200  0.75613500  0.76487800  1
  O  O72  1  0.49425400  0.31679000  0.14793400  1
  O  O73  1  0.99425400  0.18321000  0.85206600  1
  O  O74  1  0.50574600  0.81679000  0.35206600  1
  O  O75  1  0.00574600  0.68321000  0.64793400  1
  O  O76  1  0.74545800  0.13470500  0.10914000  1
  O  O77  1  0.24545800  0.36529500  0.89086000  1
  O  O78  1  0.25454200  0.63470500  0.39086000  1
  O  O79  1  0.75454200  0.86529500  0.60914000  1
  O  O80  1  0.72977800  0.49889000  0.19776900  1
  O  O81  1  0.22977800  0.00111000  0.80223100  1
  O  O82  1  0.27022200  0.99889000  0.30223100  1
  O  O83  1  0.77022200  0.50111000  0.69776900  1
  O  O84  1  0.78096000  0.38858500  0.04103400  1
  O  O85  1  0.28096000  0.11141500  0.95896600  1
  O  O86  1  0.21904000  0.88858500  0.45896600  1
  O  O87  1  0.71904000  0.61141500  0.54103400  1
  O  O88  1  0.30905500  0.33081900  0.59543600  1
  O  O89  1  0.80905500  0.16918100  0.40456400  1
  O  O90  1  0.69094500  0.83081900  0.90456400  1
  O  O91  1  0.19094500  0.66918100  0.09543600  1
  O  O92  1  0.28769100  0.08574700  0.54804400  1
  O  O93  1  0.78769100  0.41425300  0.45195600  1
  O  O94  1  0.71230900  0.58574700  0.95195600  1
  O  O95  1  0.21230900  0.91425300  0.04804400  1
  O  O96  1  0.48228000  0.25786500  0.46046000  1
  O  O97  1  0.98228000  0.24213500  0.53954000  1
  O  O98  1  0.51772000  0.75786500  0.03954000  1
  O  O99  1  0.81750200  0.67050700  0.09405700  1
