# generated using pymatgen
data_Cs2Mo3SeO12
_symmetry_space_group_name_H-M   'P 1'
_cell_length_a   7.41850868
_cell_length_b   7.41850868
_cell_length_c   12.96140552
_cell_angle_alpha   90.00000000
_cell_angle_beta   90.00000000
_cell_angle_gamma   119.99999996
_symmetry_Int_Tables_number   1
_chemical_formula_structural   Cs2Mo3SeO12
_chemical_formula_sum   'Cs4 Mo6 Se2 O24'
_cell_volume   617.75454386
_cell_formula_units_Z   2
loop_
 _symmetry_equiv_pos_site_id
 _symmetry_equiv_pos_as_xyz
  1  'x, y, z'
loop_
 _atom_site_type_symbol
 _atom_site_label
 _atom_site_symmetry_multiplicity
 _atom_site_fract_x
 _atom_site_fract_y
 _atom_site_fract_z
 _atom_site_occupancy
  O  O0  1  0.75279796  0.87080855  0.23380859  1
  O  O1  1  0.88198820  0.75279810  0.73380901  1
  O  O2  1  0.87080913  0.11801192  0.73380901  1
  O  O3  1  0.12919113  0.88198852  0.23380859  1
  O  O4  1  0.11801207  0.24720234  0.23380859  1
  O  O5  1  0.24720153  0.12919033  0.73380901  1
  O  O6  1  0.45334726  0.91180167  0.35603178  1
  O  O7  1  0.54154483  0.45334719  0.85603143  1
  O  O8  1  0.91180102  0.45845440  0.85603143  1
  O  O9  1  0.08819847  0.54154448  0.35603178  1
  O  O10  1  0.45845544  0.54665325  0.35603178  1
  O  O11  1  0.54665301  0.08819877  0.85603143  1
  O  O12  1  0.12288398  0.87245082  0.90773003  1
  O  O13  1  0.25043455  0.12288499  0.40773038  1
  O  O14  1  0.87245071  0.74956575  0.40773038  1
  O  O15  1  0.12754878  0.25043314  0.90773003  1
  O  O16  1  0.74956572  0.87711544  0.90773003  1
  O  O17  1  0.87711629  0.12754962  0.40773038  1
  O  O18  1  0.60111969  0.80134697  0.52799540  1
  O  O19  1  0.20022619  0.39887956  0.52799540  1
  O  O20  1  0.19865394  0.79977287  0.52799540  1
  O  O21  1  0.80134633  0.20022757  0.02799575  1
  O  O22  1  0.79977330  0.60111932  0.02799575  1
  O  O23  1  0.39888058  0.19865347  0.02799575  1
  Se  Se24  1  0.00000000  0.00000000  0.17859453  1
  Se  Se25  1  0.00000000  0.00000000  0.67859495  1
  Mo  Mo26  1  0.80321187  0.66127850  0.89776616  1
  Mo  Mo27  1  0.66127894  0.85806755  0.39776651  1
  Mo  Mo28  1  0.85806701  0.19678897  0.89776616  1
  Mo  Mo29  1  0.14193326  0.80321147  0.39776651  1
  Mo  Mo30  1  0.33872133  0.14193289  0.89776616  1
  Mo  Mo31  1  0.19678840  0.33872194  0.39776651  1
  Cs  Cs32  1  0.66666699  0.33333397  0.22897430  1
  Cs  Cs33  1  0.33333327  0.66666647  0.72897395  1
  Cs  Cs34  1  0.66666699  0.33333397  0.60173281  1
  Cs  Cs35  1  0.33333327  0.66666647  0.10173239  1
