# generated using pymatgen
data_BiPO4
_symmetry_space_group_name_H-M   'P 1'
_cell_length_a   4.78232824
_cell_length_b   4.78162788
_cell_length_c   7.26721454
_cell_angle_alpha   90.00000000
_cell_angle_beta   90.00000000
_cell_angle_gamma   95.23327624
_symmetry_Int_Tables_number   1
_chemical_formula_structural   BiPO4
_chemical_formula_sum   'Bi2 P2 O8'
_cell_volume   165.48896447
_cell_formula_units_Z   2
loop_
 _symmetry_equiv_pos_site_id
 _symmetry_equiv_pos_as_xyz
  1  'x, y, z'
loop_
 _atom_site_type_symbol
 _atom_site_label
 _atom_site_symmetry_multiplicity
 _atom_site_fract_x
 _atom_site_fract_y
 _atom_site_fract_z
 _atom_site_occupancy
  Bi  Bi0  1  0.86701390  0.86699071  0.49999359  1
  Bi  Bi1  1  0.13298610  0.13300929  -0.00000641  1
  P  P2  1  0.34067024  0.34054628  0.50000090  1
  P  P3  1  0.65932976  0.65945372  0.00000090  1
  O  O4  1  0.18681432  0.18687790  0.33290530  1
  O  O5  1  0.69199258  0.34093192  0.00000080  1
  O  O6  1  0.81318568  0.81312210  0.83290530  1
  O  O7  1  0.81318410  0.81311939  0.16709715  1
  O  O8  1  0.18681590  0.18688061  0.66709715  1
  O  O9  1  0.30800742  0.65906808  0.50000080  1
  O  O10  1  0.65906522  0.30736797  0.50000126  1
  O  O11  1  0.34093478  0.69263203  0.00000126  1
