# generated using pymatgen
data_Co(TePd)2
_symmetry_space_group_name_H-M   'P 1'
_cell_length_a   6.95201231
_cell_length_b   6.95201231
_cell_length_c   6.95201231
_cell_angle_alpha   135.59513619
_cell_angle_beta   125.83600713
_cell_angle_gamma   72.54957119
_symmetry_Int_Tables_number   1
_chemical_formula_structural   Co(TePd)2
_chemical_formula_sum   'Co2 Te4 Pd4'
_cell_volume   186.40035456
_cell_formula_units_Z   2
loop_
 _symmetry_equiv_pos_site_id
 _symmetry_equiv_pos_as_xyz
  1  'x, y, z'
loop_
 _atom_site_type_symbol
 _atom_site_label
 _atom_site_symmetry_multiplicity
 _atom_site_fract_x
 _atom_site_fract_y
 _atom_site_fract_z
 _atom_site_occupancy
  Co  Co0  1  0.00000000  0.75000000  0.75000000  1
  Co  Co1  1  0.00000000  0.25000000  0.25000000  1
  Te  Te2  1  0.07098700  0.35605100  0.71493500  1
  Te  Te3  1  0.92901300  0.64394900  0.28506500  1
  Te  Te4  1  0.35888400  0.14394900  0.21493500  1
  Te  Te5  1  0.64111600  0.85605100  0.78506500  1
  Pd  Pd6  1  0.47339600  0.60590100  0.86749500  1
  Pd  Pd7  1  0.26159400  0.89409900  0.36749500  1
  Pd  Pd8  1  0.73840600  0.10590100  0.63250500  1
  Pd  Pd9  1  0.52660400  0.39409900  0.13250500  1
