# generated using pymatgen
data_Er5SbPd2
_symmetry_space_group_name_H-M   'P 1'
_cell_length_a   8.72512703
_cell_length_b   8.72512703
_cell_length_c   8.72512703
_cell_angle_alpha   127.75215931
_cell_angle_beta   127.75215931
_cell_angle_gamma   77.02686544
_symmetry_Int_Tables_number   1
_chemical_formula_structural   Er5SbPd2
_chemical_formula_sum   'Er10 Sb2 Pd4'
_cell_volume   403.05444086
_cell_formula_units_Z   2
loop_
 _symmetry_equiv_pos_site_id
 _symmetry_equiv_pos_as_xyz
  1  'x, y, z'
loop_
 _atom_site_type_symbol
 _atom_site_label
 _atom_site_symmetry_multiplicity
 _atom_site_fract_x
 _atom_site_fract_y
 _atom_site_fract_z
 _atom_site_occupancy
  Er  Er0  1  0.00000000  0.00000000  0.00000000  1
  Er  Er1  1  0.50000000  0.50000000  0.00000000  1
  Er  Er2  1  0.79892100  0.29892100  0.81246000  1
  Er  Er3  1  0.20107900  0.70107900  0.18754000  1
  Er  Er4  1  0.48646100  0.98646100  0.18754000  1
  Er  Er5  1  0.29892100  0.48646100  0.50000000  1
  Er  Er6  1  0.01353900  0.20107900  0.50000000  1
  Er  Er7  1  0.51353900  0.01353900  0.81246000  1
  Er  Er8  1  0.70107900  0.51353900  0.50000000  1
  Er  Er9  1  0.98646100  0.79892100  0.50000000  1
  Sb  Sb10  1  0.25000000  0.25000000  0.00000000  1
  Sb  Sb11  1  0.75000000  0.75000000  0.00000000  1
  Pd  Pd12  1  0.13710700  0.63710700  0.77421400  1
  Pd  Pd13  1  0.86289300  0.36289300  0.22578600  1
  Pd  Pd14  1  0.63710700  0.86289300  0.50000000  1
  Pd  Pd15  1  0.36289300  0.13710700  0.50000000  1
