# generated using pymatgen
data_NaMnCuSe2
_symmetry_space_group_name_H-M   'P 1'
_cell_length_a   4.13552773
_cell_length_b   4.13552773
_cell_length_c   7.19320400
_cell_angle_alpha   90.00000000
_cell_angle_beta   90.00000000
_cell_angle_gamma   119.99999576
_symmetry_Int_Tables_number   1
_chemical_formula_structural   NaMnCuSe2
_chemical_formula_sum   'Na1 Mn1 Cu1 Se2'
_cell_volume   106.54054226
_cell_formula_units_Z   1
loop_
 _symmetry_equiv_pos_site_id
 _symmetry_equiv_pos_as_xyz
  1  'x, y, z'
loop_
 _atom_site_type_symbol
 _atom_site_label
 _atom_site_symmetry_multiplicity
 _atom_site_fract_x
 _atom_site_fract_y
 _atom_site_fract_z
 _atom_site_occupancy
  Na  Na0  1  0.66666700  0.33333300  0.98791500  1
  Mn  Mn1  1  0.33333300  0.66666700  0.39253100  1
  Cu  Cu2  1  0.00000000  0.00000000  0.62600600  1
  Se  Se3  1  0.00000000  0.00000000  0.25789100  1
  Se  Se4  1  0.33333300  0.66666700  0.73565800  1
