# generated using pymatgen
data_Tb2Mn12P7
_symmetry_space_group_name_H-M   'P 1'
_cell_length_a   3.60483700
_cell_length_b   9.31733353
_cell_length_c   9.31204191
_cell_angle_alpha   120.00111050
_cell_angle_beta   90.00000000
_cell_angle_gamma   90.00000000
_symmetry_Int_Tables_number   1
_chemical_formula_structural   Tb2Mn12P7
_chemical_formula_sum   'Tb2 Mn12 P7'
_cell_volume   270.86192946
_cell_formula_units_Z   1
loop_
 _symmetry_equiv_pos_site_id
 _symmetry_equiv_pos_as_xyz
  1  'x, y, z'
loop_
 _atom_site_type_symbol
 _atom_site_label
 _atom_site_symmetry_multiplicity
 _atom_site_fract_x
 _atom_site_fract_y
 _atom_site_fract_z
 _atom_site_occupancy
  Tb  Tb0  1  0.00000000  0.66682200  0.33326700  1
  Tb  Tb1  1  0.50000000  0.33340800  0.66672500  1
  Mn  Mn2  1  0.00000000  0.37710100  0.95105200  1
  Mn  Mn3  1  0.00000000  0.04893500  0.42590900  1
  Mn  Mn4  1  0.00000000  0.57389400  0.62289800  1
  Mn  Mn5  1  0.00000000  0.87906500  0.72385500  1
  Mn  Mn6  1  0.00000000  0.27637000  0.15538200  1
  Mn  Mn7  1  0.00000000  0.84458400  0.12080500  1
  Mn  Mn8  1  0.50000000  0.95437400  0.56472300  1
  Mn  Mn9  1  0.50000000  0.43511200  0.38947100  1
  Mn  Mn10  1  0.50000000  0.61023900  0.04550600  1
  Mn  Mn11  1  0.50000000  0.12410700  0.89647900  1
  Mn  Mn12  1  0.50000000  0.10379200  0.22773300  1
  Mn  Mn13  1  0.50000000  0.77220900  0.87615000  1
  P  P14  1  0.00000000  0.11895200  0.70962800  1
  P  P15  1  0.00000000  0.29047600  0.40951400  1
  P  P16  1  0.00000000  0.59042200  0.88092000  1
  P  P17  1  0.50000000  0.71704100  0.59201700  1
  P  P18  1  0.50000000  0.40812000  0.12512000  1
  P  P19  1  0.50000000  0.87481700  0.28267500  1
  P  P20  1  0.00000000  0.00016000  0.00016900  1
