# generated using pymatgen
data_AgMo2P3O13
_symmetry_space_group_name_H-M   'P 1'
_cell_length_a   6.49479741
_cell_length_b   7.24246632
_cell_length_c   22.73698738
_cell_angle_alpha   90.00000000
_cell_angle_beta   90.00000000
_cell_angle_gamma   99.77511256
_symmetry_Int_Tables_number   1
_chemical_formula_structural   AgMo2P3O13
_chemical_formula_sum   'Ag4 Mo8 P12 O52'
_cell_volume   1053.98297292
_cell_formula_units_Z   4
loop_
 _symmetry_equiv_pos_site_id
 _symmetry_equiv_pos_as_xyz
  1  'x, y, z'
loop_
 _atom_site_type_symbol
 _atom_site_label
 _atom_site_symmetry_multiplicity
 _atom_site_fract_x
 _atom_site_fract_y
 _atom_site_fract_z
 _atom_site_occupancy
  O  O0  1  0.27697000  0.51761250  0.88766330  1
  O  O1  1  0.22303132  0.98238737  0.38766351  1
  O  O2  1  0.72303029  0.48238719  0.11233672  1
  O  O3  1  0.77696897  0.01761232  0.61233650  1
  O  O4  1  0.09733929  0.46255980  0.07989050  1
  O  O5  1  0.40266009  0.03744005  0.57989029  1
  O  O6  1  0.90266101  0.53743989  0.92010951  1
  O  O7  1  0.59734021  0.96255964  0.42010972  1
  O  O8  1  0.90410644  0.77062330  0.05746102  1
  O  O9  1  0.59589323  0.72937623  0.55746125  1
  O  O10  1  0.09589386  0.22937639  0.94253899  1
  O  O11  1  0.40410706  0.27062346  0.44253876  1
  O  O12  1  0.51376649  0.70112047  0.06542021  1
  O  O13  1  0.98623345  0.79888047  0.56542000  1
  O  O14  1  0.48623381  0.29887922  0.93457980  1
  O  O15  1  0.01376711  0.20112062  0.43457957  1
  O  O16  1  0.21301812  0.76606673  0.15305148  1
  O  O17  1  0.28698167  0.73393314  0.65305126  1
  O  O18  1  0.29034429  0.01276859  0.05977449  1
  O  O19  1  0.71301890  0.26606795  0.34694875  1
  O  O20  1  0.22136597  0.70637428  0.97662780  1
  O  O21  1  0.27863562  0.79362699  0.47662802  1
  O  O22  1  0.77863459  0.29362681  0.02337221  1
  O  O23  1  0.72136494  0.20637410  0.52337200  1
  O  O24  1  0.74445182  0.93540278  0.27600076  1
  O  O25  1  0.75554812  0.56459816  0.77600099  1
  O  O26  1  0.25554875  0.06459831  0.72399925  1
  O  O27  1  0.24445217  0.43540153  0.22399903  1
  O  O28  1  0.46886480  0.05192273  0.19004283  1
  O  O29  1  0.03113484  0.44807852  0.69004262  1
  O  O30  1  0.53113576  0.94807836  0.80995718  1
  O  O31  1  0.96886573  0.55192257  0.30995740  1
  O  O32  1  0.09528254  0.03398286  0.20912282  1
  O  O33  1  0.40471838  0.46601698  0.70912304  1
  O  O34  1  0.90471776  0.96601683  0.79087719  1
  O  O35  1  0.59528192  0.53398271  0.29087697  1
  O  O36  1  0.73105573  0.79429342  0.15820505  1
  O  O37  1  0.76894549  0.70570611  0.65820483  1
  O  O38  1  0.26894457  0.20570627  0.84179497  1
  O  O39  1  0.23105481  0.29429357  0.34179518  1
  O  O40  1  0.79562751  0.30454893  0.23921489  1
  O  O41  1  0.70437330  0.19545058  0.73921468  1
  O  O42  1  0.20437279  0.69545076  0.76078512  1
  O  O43  1  0.29562699  0.80454911  0.26078534  1
  O  O44  1  0.85437183  0.18125514  0.12473275  1
  O  O45  1  0.64562770  0.31874577  0.62473253  1
  O  O46  1  0.14562692  0.81874455  0.87526727  1
  O  O47  1  0.35437286  0.68125532  0.37526748  1
  O  O48  1  0.79034366  0.51276843  0.44022529  1
  O  O49  1  0.70965628  0.98723250  0.94022552  1
  O  O50  1  0.20965663  0.48723125  0.55977472  1
  O  O51  1  0.78698218  0.23393296  0.84694853  1
  P  P52  1  0.28087851  0.29893658  0.90189963  1
  P  P53  1  0.21912086  0.20106327  0.40189940  1
  P  P54  1  0.71912024  0.70106312  0.09810039  1
  P  P55  1  0.78087970  0.79893782  0.59810061  1
  P  P56  1  0.12436828  0.65210950  0.91647353  1
  P  P57  1  0.37563177  0.84789177  0.41647374  1
  P  P58  1  0.87563228  0.34789159  0.08352649  1
  P  P59  1  0.62436880  0.15210932  0.58352627  1
  P  P60  1  0.26422865  0.90895394  0.20364665  1
  P  P61  1  0.76422762  0.40895376  0.29635313  1
  P  P62  1  0.73577192  0.09104715  0.79635336  1
  P  P63  1  0.23577295  0.59104733  0.70364688  1
  Mo  Mo64  1  0.72203193  0.27408161  0.43657440  1
  Mo  Mo65  1  0.72237944  0.46421400  0.70778548  1
  Mo  Mo66  1  0.22237892  0.96421419  0.79221475  1
  Mo  Mo67  1  0.27762086  0.53578569  0.29221453  1
  Mo  Mo68  1  0.22203296  0.77408179  0.06342539  1
  Mo  Mo69  1  0.27796682  0.72591809  0.56342561  1
  Mo  Mo70  1  0.77796760  0.22591930  0.93657463  1
  Mo  Mo71  1  0.77761983  0.03578551  0.20778526  1
  Ag  Ag72  1  0.33225249  0.29360351  0.13175015  1
  Ag  Ag73  1  0.16774689  0.20639634  0.63174994  1
  Ag  Ag74  1  0.66774808  0.70639758  0.86824986  1
  Ag  Ag75  1  0.83225186  0.79360335  0.36825008  1
