# generated using pymatgen
data_CsH5N2
_symmetry_space_group_name_H-M   'P 1'
_cell_length_a   5.73243400
_cell_length_b   7.04868600
_cell_length_c   10.28279800
_cell_angle_alpha   90.00000000
_cell_angle_beta   90.00000000
_cell_angle_gamma   90.00000000
_symmetry_Int_Tables_number   1
_chemical_formula_structural   CsH5N2
_chemical_formula_sum   'Cs4 H20 N8'
_cell_volume   415.48804480
_cell_formula_units_Z   4
loop_
 _symmetry_equiv_pos_site_id
 _symmetry_equiv_pos_as_xyz
  1  'x, y, z'
loop_
 _atom_site_type_symbol
 _atom_site_label
 _atom_site_symmetry_multiplicity
 _atom_site_fract_x
 _atom_site_fract_y
 _atom_site_fract_z
 _atom_site_occupancy
  Cs  Cs0  1  0.25000000  0.29529700  0.91618300  1
  Cs  Cs1  1  0.25000000  0.79529700  0.58381700  1
  Cs  Cs2  1  0.75000000  0.70470300  0.08381700  1
  Cs  Cs3  1  0.75000000  0.20470300  0.41618300  1
  H  H4  1  0.25000000  0.23424400  0.63570500  1
  H  H5  1  0.25000000  0.73424400  0.86429500  1
  H  H6  1  0.75000000  0.76575600  0.36429500  1
  H  H7  1  0.75000000  0.26575600  0.13570500  1
  H  H8  1  0.25000000  0.38768600  0.52107500  1
  H  H9  1  0.25000000  0.88768600  0.97892500  1
  H  H10  1  0.75000000  0.61231400  0.47892500  1
  H  H11  1  0.75000000  0.11231400  0.02107500  1
  H  H12  1  0.25000000  0.76689700  0.24703300  1
  H  H13  1  0.25000000  0.26689700  0.25296700  1
  H  H14  1  0.75000000  0.23310300  0.75296700  1
  H  H15  1  0.75000000  0.73310300  0.74703300  1
  H  H16  1  0.39963800  0.59471400  0.31160200  1
  H  H17  1  0.10036200  0.09471400  0.18839800  1
  H  H18  1  0.89963800  0.40528600  0.68839800  1
  H  H19  1  0.60036200  0.90528600  0.81160200  1
  H  H20  1  0.60036200  0.40528600  0.68839800  1
  H  H21  1  0.89963800  0.90528600  0.81160200  1
  H  H22  1  0.10036200  0.59471400  0.31160200  1
  H  H23  1  0.39963800  0.09471400  0.18839800  1
  N  N24  1  0.25000000  0.37933900  0.62115900  1
  N  N25  1  0.25000000  0.87933900  0.87884100  1
  N  N26  1  0.75000000  0.62066100  0.37884100  1
  N  N27  1  0.75000000  0.12066100  0.12115900  1
  N  N28  1  0.25000000  0.62151300  0.25634500  1
  N  N29  1  0.25000000  0.12151300  0.24365500  1
  N  N30  1  0.75000000  0.37848700  0.74365500  1
  N  N31  1  0.75000000  0.87848700  0.75634500  1
