# generated using pymatgen
data_Re2P3N2(Cl5O)3
_symmetry_space_group_name_H-M   'P 1'
_cell_length_a   12.14201700
_cell_length_b   12.78404225
_cell_length_c   19.71016997
_cell_angle_alpha   72.16706443
_cell_angle_beta   73.84256905
_cell_angle_gamma   84.66062115
_symmetry_Int_Tables_number   1
_chemical_formula_structural   Re2P3N2(Cl5O)3
_chemical_formula_sum   'Re8 P12 N8 Cl60 O12'
_cell_volume   2797.35051209
_cell_formula_units_Z   4
loop_
 _symmetry_equiv_pos_site_id
 _symmetry_equiv_pos_as_xyz
  1  'x, y, z'
loop_
 _atom_site_type_symbol
 _atom_site_label
 _atom_site_symmetry_multiplicity
 _atom_site_fract_x
 _atom_site_fract_y
 _atom_site_fract_z
 _atom_site_occupancy
  Re  Re0  1  0.82316800  0.95408600  0.11733800  1
  Re  Re1  1  0.17683200  0.04591400  0.88266200  1
  Re  Re2  1  0.09755000  0.10590600  0.06358800  1
  Re  Re3  1  0.90245000  0.89409400  0.93641200  1
  Re  Re4  1  0.37975900  0.55588700  0.40133300  1
  Re  Re5  1  0.62024100  0.44411300  0.59866700  1
  Re  Re6  1  0.65658200  0.40891300  0.41274900  1
  Re  Re7  1  0.34341800  0.59108700  0.58725100  1
  P  P8  1  0.74221600  0.99798900  0.30384700  1
  P  P9  1  0.25778400  0.00201100  0.69615300  1
  P  P10  1  0.39640200  0.22075200  0.02129600  1
  P  P11  1  0.60359800  0.77924800  0.97870400  1
  P  P12  1  0.09759100  0.69429700  0.39048300  1
  P  P13  1  0.90240900  0.30570300  0.60951700  1
  P  P14  1  0.68639200  0.41929400  0.21323700  1
  P  P15  1  0.31360800  0.58070600  0.78676300  1
  P  P16  1  0.79909400  0.50456500  0.85978800  1
  P  P17  1  0.20090600  0.49543500  0.14021200  1
  P  P18  1  0.79019800  0.90398500  0.62151400  1
  P  P19  1  0.20980200  0.09601500  0.37848600  1
  N  N20  1  0.84917000  0.92312200  0.03536700  1
  N  N21  1  0.15083000  0.07687800  0.96463300  1
  N  N22  1  0.97253600  0.03473000  0.09211500  1
  N  N23  1  0.02746400  0.96527000  0.90788500  1
  N  N24  1  0.49282000  0.51455600  0.59890000  1
  N  N25  1  0.50718000  0.48544400  0.40110000  1
  N  N26  1  0.64456100  0.42361700  0.49795800  1
  N  N27  1  0.35543900  0.57638300  0.50204200  1
  Cl  Cl28  1  0.73983000  0.12786500  0.08245800  1
  Cl  Cl29  1  0.26017000  0.87213500  0.91754200  1
  Cl  Cl30  1  0.64355700  0.87854500  0.17757900  1
  Cl  Cl31  1  0.35644300  0.12145500  0.82242100  1
  Cl  Cl32  1  0.90762600  0.79776500  0.18110000  1
  Cl  Cl33  1  0.09237400  0.20223500  0.81890000  1
  Cl  Cl34  1  0.71944800  0.84786100  0.37472900  1
  Cl  Cl35  1  0.28055200  0.15213900  0.62527100  1
  Cl  Cl36  1  0.82622700  0.08140400  0.34328800  1
  Cl  Cl37  1  0.17377300  0.91859600  0.65671200  1
  Cl  Cl38  1  0.58528700  0.06493400  0.31493800  1
  Cl  Cl39  1  0.41471300  0.93506600  0.68506200  1
  Cl  Cl40  1  0.21872300  0.96166000  0.10618800  1
  Cl  Cl41  1  0.78127700  0.03834000  0.89381200  1
  Cl  Cl42  1  0.08551600  0.16538100  0.16529800  1
  Cl  Cl43  1  0.91448400  0.83461900  0.83470200  1
  Cl  Cl44  1  0.03350400  0.27669300  0.00293800  1
  Cl  Cl45  1  0.96649600  0.72330700  0.99706200  1
  Cl  Cl46  1  0.45003200  0.37587900  0.98716400  1
  Cl  Cl47  1  0.54996800  0.62412100  0.01283600  1
  Cl  Cl48  1  0.51419900  0.14705200  0.95825000  1
  Cl  Cl49  1  0.48580100  0.85294800  0.04175000  1
  Cl  Cl50  1  0.41846500  0.15957700  0.12242400  1
  Cl  Cl51  1  0.58153500  0.84042300  0.87757600  1
  Cl  Cl52  1  0.25826000  0.40435200  0.45793100  1
  Cl  Cl53  1  0.74174000  0.59564800  0.54206900  1
  Cl  Cl54  1  0.54956800  0.26592200  0.64878900  1
  Cl  Cl55  1  0.45043200  0.73407800  0.35121100  1
  Cl  Cl56  1  0.35724500  0.56059500  0.28727700  1
  Cl  Cl57  1  0.64275500  0.43940500  0.71272300  1
  Cl  Cl58  1  0.00005500  0.57527400  0.39400800  1
  Cl  Cl59  1  0.99994500  0.42472600  0.60599200  1
  Cl  Cl60  1  0.99926900  0.22094400  0.54477400  1
  Cl  Cl61  1  0.00073100  0.77905600  0.45522600  1
  Cl  Cl62  1  0.87828400  0.20466000  0.71198100  1
  Cl  Cl63  1  0.12171600  0.79534000  0.28801900  1
  Cl  Cl64  1  0.74492700  0.57491500  0.33906800  1
  Cl  Cl65  1  0.25507300  0.42508500  0.66093200  1
  Cl  Cl66  1  0.56464400  0.24027700  0.45120000  1
  Cl  Cl67  1  0.43535600  0.75972300  0.54880000  1
  Cl  Cl68  1  0.83410100  0.32117700  0.39304800  1
  Cl  Cl69  1  0.16589900  0.67882300  0.60695200  1
  Cl  Cl70  1  0.82693300  0.34440700  0.16871500  1
  Cl  Cl71  1  0.17306700  0.65559300  0.83128500  1
  Cl  Cl72  1  0.71080500  0.57853800  0.16078300  1
  Cl  Cl73  1  0.28919500  0.42146200  0.83921700  1
  Cl  Cl74  1  0.56150500  0.37551300  0.18002200  1
  Cl  Cl75  1  0.43849500  0.62448700  0.81997800  1
  Cl  Cl76  1  0.79158600  0.34108100  0.88057000  1
  Cl  Cl77  1  0.20841400  0.65891900  0.11943000  1
  Cl  Cl78  1  0.85819600  0.52154800  0.94153400  1
  Cl  Cl79  1  0.14180400  0.47845200  0.05846600  1
  Cl  Cl80  1  0.93108900  0.55171600  0.76960400  1
  Cl  Cl81  1  0.06891100  0.44828400  0.23039600  1
  Cl  Cl82  1  0.72144100  0.97452400  0.53631400  1
  Cl  Cl83  1  0.27855900  0.02547600  0.46368600  1
  Cl  Cl84  1  0.72845700  0.99859800  0.68891000  1
  Cl  Cl85  1  0.27154300  0.00140200  0.31109000  1
  Cl  Cl86  1  0.70529200  0.76209600  0.67436800  1
  Cl  Cl87  1  0.29470800  0.23790400  0.32563200  1
  O  O88  1  0.80277300  0.00147800  0.22646900  1
  O  O89  1  0.19722700  0.99852200  0.77353100  1
  O  O90  1  0.27806900  0.21077900  0.01653500  1
  O  O91  1  0.72193100  0.78922100  0.98346500  1
  O  O92  1  0.20466200  0.65423600  0.41294300  1
  O  O93  1  0.79533800  0.34576400  0.58705700  1
  O  O94  1  0.65962700  0.39079700  0.29489000  1
  O  O95  1  0.34037300  0.60920300  0.70511000  1
  O  O96  1  0.69098800  0.56383500  0.85367400  1
  O  O97  1  0.30901200  0.43616500  0.14632600  1
  O  O98  1  0.91544100  0.89236200  0.60068500  1
  O  O99  1  0.08455900  0.10763800  0.39931500  1
