# generated using pymatgen
data_Nd12(MnC3)5
_symmetry_space_group_name_H-M   'P 1'
_cell_length_a   5.30014373
_cell_length_b   10.78105396
_cell_length_c   10.78105396
_cell_angle_alpha   119.99999877
_cell_angle_beta   90.00000000
_cell_angle_gamma   90.00000000
_symmetry_Int_Tables_number   1
_chemical_formula_structural   Nd12(MnC3)5
_chemical_formula_sum   'Nd12 Mn5 C15'
_cell_volume   533.50773881
_cell_formula_units_Z   1
loop_
 _symmetry_equiv_pos_site_id
 _symmetry_equiv_pos_as_xyz
  1  'x, y, z'
loop_
 _atom_site_type_symbol
 _atom_site_label
 _atom_site_symmetry_multiplicity
 _atom_site_fract_x
 _atom_site_fract_y
 _atom_site_fract_z
 _atom_site_occupancy
  Nd  Nd0  1  0.50000000  0.20699348  0.20699348  1
  Nd  Nd1  1  0.50000000  0.00000000  0.79300652  1
  Nd  Nd2  1  0.50000000  0.79300652  0.00000000  1
  Nd  Nd3  1  0.00000000  0.72898842  0.18626678  1
  Nd  Nd4  1  0.00000000  0.45727836  0.27101158  1
  Nd  Nd5  1  0.00000000  0.54272164  0.81373322  1
  Nd  Nd6  1  -0.00000000  0.81373322  0.54272164  1
  Nd  Nd7  1  -0.00000000  0.18626678  0.72898842  1
  Nd  Nd8  1  -0.00000000  0.27101158  0.45727836  1
  Nd  Nd9  1  0.50000000  0.57598149  0.57598149  1
  Nd  Nd10  1  0.50000000  1.00000000  0.42401851  1
  Nd  Nd11  1  0.50000000  0.42401851  1.00000000  1
  Mn  Mn12  1  -0.00000000  0.84645745  0.84645745  1
  Mn  Mn13  1  0.00000000  1.00000000  0.15354255  1
  Mn  Mn14  1  -0.00000000  0.15354255  1.00000000  1
  Mn  Mn15  1  0.50000000  0.66666700  0.33333300  1
  Mn  Mn16  1  0.50000000  0.33333300  0.66666700  1
  C  C17  1  0.00000000  0.67892982  0.67892982  1
  C  C18  1  -0.00000000  0.00000000  0.32107018  1
  C  C19  1  0.00000000  0.32107018  0.00000000  1
  C  C20  1  -0.00000000  0.19226537  0.19226537  1
  C  C21  1  -0.00000000  1.00000000  0.80773463  1
  C  C22  1  0.00000000  0.80773463  1.00000000  1
  C  C23  1  0.00000000  0.55401189  0.55401189  1
  C  C24  1  -0.00000000  1.00000000  0.44598811  1
  C  C25  1  0.00000000  0.44598811  1.00000000  1
  C  C26  1  0.50000000  0.71146020  0.19419916  1
  C  C27  1  0.50000000  0.48273896  0.28853980  1
  C  C28  1  0.50000000  0.51726104  0.80580084  1
  C  C29  1  0.50000000  0.80580084  0.51726104  1
  C  C30  1  0.50000000  0.19419916  0.71146020  1
  C  C31  1  0.50000000  0.28853980  0.48273896  1
