# generated using pymatgen
data_Dy2Fe12P7
_symmetry_space_group_name_H-M   'P 1'
_cell_length_a   3.63604000
_cell_length_b   8.96439081
_cell_length_c   8.96746706
_cell_angle_alpha   120.00283462
_cell_angle_beta   90.00000000
_cell_angle_gamma   90.00000000
_symmetry_Int_Tables_number   1
_chemical_formula_structural   Dy2Fe12P7
_chemical_formula_sum   'Dy2 Fe12 P7'
_cell_volume   253.12640410
_cell_formula_units_Z   1
loop_
 _symmetry_equiv_pos_site_id
 _symmetry_equiv_pos_as_xyz
  1  'x, y, z'
loop_
 _atom_site_type_symbol
 _atom_site_label
 _atom_site_symmetry_multiplicity
 _atom_site_fract_x
 _atom_site_fract_y
 _atom_site_fract_z
 _atom_site_occupancy
  Dy  Dy0  1  0.00000000  0.66635900  0.33340100  1
  Dy  Dy1  1  0.50000000  0.33366100  0.66684000  1
  Fe  Fe2  1  0.00000000  0.37171600  0.94443400  1
  Fe  Fe3  1  0.00000000  0.05540000  0.42733700  1
  Fe  Fe4  1  0.00000000  0.57266400  0.62807300  1
  Fe  Fe5  1  0.00000000  0.88012700  0.72483200  1
  Fe  Fe6  1  0.00000000  0.27513700  0.15537200  1
  Fe  Fe7  1  0.00000000  0.84464300  0.11983500  1
  Fe  Fe8  1  0.50000000  0.95149000  0.56825000  1
  Fe  Fe9  1  0.50000000  0.43192000  0.38333400  1
  Fe  Fe10  1  0.50000000  0.61673200  0.04851700  1
  Fe  Fe11  1  0.50000000  0.11982500  0.90340000  1
  Fe  Fe12  1  0.50000000  0.09680200  0.21642700  1
  Fe  Fe13  1  0.50000000  0.78353700  0.88016600  1
  P  P14  1  0.00000000  0.11354200  0.70342200  1
  P  P15  1  0.00000000  0.29712500  0.41016300  1
  P  P16  1  0.00000000  0.58989800  0.88645500  1
  P  P17  1  0.50000000  0.70994400  0.59883800  1
  P  P18  1  0.50000000  0.40090600  0.11137600  1
  P  P19  1  0.50000000  0.88848000  0.28964700  1
  P  P20  1  0.00000000  0.00009300  0.99988400  1
