# generated using pymatgen
data_Tb5Zr3(Ni4As3)4
_symmetry_space_group_name_H-M   'P 1'
_cell_length_a   3.95229455
_cell_length_b   12.82241199
_cell_length_c   12.81802329
_cell_angle_alpha   120.01132669
_cell_angle_beta   90.00000000
_cell_angle_gamma   90.00000000
_symmetry_Int_Tables_number   1
_chemical_formula_structural   Tb5Zr3(Ni4As3)4
_chemical_formula_sum   'Tb5 Zr3 Ni16 As12'
_cell_volume   562.49820202
_cell_formula_units_Z   1
loop_
 _symmetry_equiv_pos_site_id
 _symmetry_equiv_pos_as_xyz
  1  'x, y, z'
loop_
 _atom_site_type_symbol
 _atom_site_label
 _atom_site_symmetry_multiplicity
 _atom_site_fract_x
 _atom_site_fract_y
 _atom_site_fract_z
 _atom_site_occupancy
  Tb  Tb0  1  0.50000000  -0.00002060  0.18311198  1
  Tb  Tb1  1  0.50000000  0.18298941  0.00000000  1
  Tb  Tb2  1  0.50000000  0.81686742  0.81688802  1
  Tb  Tb3  1  -0.00000000  0.33346234  0.66670733  1
  Tb  Tb4  1  -0.00000000  0.66675501  0.33329267  1
  Zr  Zr5  1  -0.00000000  -0.00013181  0.56193567  1
  Zr  Zr6  1  0.00000000  0.56229912  -0.00000000  1
  Zr  Zr7  1  -0.00000000  0.43793252  0.43806433  1
  Ni  Ni8  1  0.50000000  0.99989923  0.72272591  1
  Ni  Ni9  1  0.50000000  0.72286005  -0.00000000  1
  Ni  Ni10  1  0.50000000  0.27717332  0.27727409  1
  Ni  Ni11  1  -0.00000000  0.19339976  0.37590770  1
  Ni  Ni12  1  -0.00000000  0.18265962  0.80665093  1
  Ni  Ni13  1  0.00000000  0.62412718  0.81767981  1
  Ni  Ni14  1  0.00000000  0.81749206  0.62409230  1
  Ni  Ni15  1  -0.00000000  0.37600869  0.19334907  1
  Ni  Ni16  1  0.00000000  0.80644737  0.18232019  1
  Ni  Ni17  1  0.50000000  0.12072695  0.48144975  1
  Ni  Ni18  1  0.50000000  0.36068854  0.87927231  1
  Ni  Ni19  1  0.50000000  0.51852376  0.63909995  1
  Ni  Ni20  1  0.50000000  0.63927720  0.51855025  1
  Ni  Ni21  1  0.50000000  0.48141624  0.12072769  1
  Ni  Ni22  1  0.50000000  0.87942381  0.36090005  1
  Ni  Ni23  1  -0.00000000  0.99998515  -0.00000000  1
  As  As24  1  -0.00000000  0.00004393  0.82110502  1
  As  As25  1  -0.00000000  0.82103945  -0.00000000  1
  As  As26  1  -0.00000000  0.17893891  0.17889498  1
  As  As27  1  0.50000000  0.30704363  0.47855401  1
  As  As28  1  0.50000000  0.17144808  0.69306962  1
  As  As29  1  0.50000000  0.52148799  0.82845781  1
  As  As30  1  0.50000000  0.82848962  0.52144599  1
  As  As31  1  0.50000000  0.47837846  0.30693038  1
  As  As32  1  0.50000000  0.69303018  0.17154219  1
  As  As33  1  -0.00000000  -0.00014792  0.35558362  1
  As  As34  1  0.00000000  0.35561686  0.00000000  1
  As  As35  1  -0.00000000  0.64426846  0.64441638  1
