# generated using pymatgen
data_Rb8Mn5O10
_symmetry_space_group_name_H-M   'P 1'
_cell_length_a   12.35394048
_cell_length_b   12.36160397
_cell_length_c   28.37777849
_cell_angle_alpha   89.99999633
_cell_angle_beta   89.99995861
_cell_angle_gamma   118.41486933
_symmetry_Int_Tables_number   1
_chemical_formula_structural   Rb8Mn5O10
_chemical_formula_sum   'Rb64 Mn40 O80'
_cell_volume   3811.59692393
_cell_formula_units_Z   8
loop_
 _symmetry_equiv_pos_site_id
 _symmetry_equiv_pos_as_xyz
  1  'x, y, z'
loop_
 _atom_site_type_symbol
 _atom_site_label
 _atom_site_symmetry_multiplicity
 _atom_site_fract_x
 _atom_site_fract_y
 _atom_site_fract_z
 _atom_site_occupancy
  Rb  Rb0  1  0.72325992  0.37710628  0.40707432  1
  Rb  Rb1  1  0.77674081  0.62289477  0.90707425  1
  Rb  Rb2  1  0.27674008  0.62289372  0.59292568  1
  Rb  Rb3  1  0.22325919  0.37710523  0.09292575  1
  Rb  Rb4  1  0.38846261  0.23124187  0.40302236  1
  Rb  Rb5  1  0.11153682  0.76875852  0.90302234  1
  Rb  Rb6  1  0.61153739  0.76875813  0.59697764  1
  Rb  Rb7  1  0.88846318  0.23124148  0.09697766  1
  Rb  Rb8  1  0.10338075  0.77105988  0.28042120  1
  Rb  Rb9  1  0.39662120  0.22894060  0.78042100  1
  Rb  Rb10  1  0.89661925  0.22894012  0.71957880  1
  Rb  Rb11  1  0.60337880  0.77105940  0.21957900  1
  Rb  Rb12  1  0.76644850  0.58803999  0.28535574  1
  Rb  Rb13  1  0.73355150  0.41196009  0.78535509  1
  Rb  Rb14  1  0.23355150  0.41196001  0.71464426  1
  Rb  Rb15  1  0.26644850  0.58803991  0.21464491  1
  Rb  Rb16  1  0.82513141  0.15549998  0.34906243  1
  Rb  Rb17  1  0.67486929  0.84449955  0.84906271  1
  Rb  Rb18  1  0.17486859  0.84450002  0.65093757  1
  Rb  Rb19  1  0.32513071  0.15550045  0.15093729  1
  Rb  Rb20  1  0.17283920  0.34005559  0.33790170  1
  Rb  Rb21  1  0.32716110  0.65994603  0.83790148  1
  Rb  Rb22  1  0.82716080  0.65994441  0.66209830  1
  Rb  Rb23  1  0.67283890  0.34005397  0.16209852  1
  Rb  Rb24  1  0.26706406  0.11327045  0.28228698  1
  Rb  Rb25  1  0.23293582  0.88672852  0.78228722  1
  Rb  Rb26  1  0.73293594  0.88672955  0.71771302  1
  Rb  Rb27  1  0.76706418  0.11327148  0.21771278  1
  Rb  Rb28  1  0.16480721  0.80968209  0.15353391  1
  Rb  Rb29  1  0.33519476  0.19031731  0.65353362  1
  Rb  Rb30  1  0.83519279  0.19031791  0.84646609  1
  Rb  Rb31  1  0.66480524  0.80968269  0.34646638  1
  Rb  Rb32  1  0.22098282  0.89657816  0.40419631  1
  Rb  Rb33  1  0.27901621  0.10342345  0.90419598  1
  Rb  Rb34  1  0.77901718  0.10342184  0.59580369  1
  Rb  Rb35  1  0.72098379  0.89657655  0.09580402  1
  Rb  Rb36  1  0.87919109  0.71835680  0.40930538  1
  Rb  Rb37  1  0.62080879  0.28164446  0.90930545  1
  Rb  Rb38  1  0.12080891  0.28164320  0.59069462  1
  Rb  Rb39  1  0.37919121  0.71835554  0.09069455  1
  Rb  Rb40  1  0.59884046  0.24792592  0.29253070  1
  Rb  Rb41  1  0.90116102  0.75207496  0.79253085  1
  Rb  Rb42  1  0.40115954  0.75207408  0.70746930  1
  Rb  Rb43  1  0.09883898  0.24792504  0.20746915  1
  Rb  Rb44  1  0.32517430  0.68031341  0.34465450  1
  Rb  Rb45  1  0.17482572  0.31968536  0.84465404  1
  Rb  Rb46  1  0.67482570  0.31968659  0.65534550  1
  Rb  Rb47  1  0.82517428  0.68031464  0.15534596  1
  Rb  Rb48  1  0.86592319  0.21971681  0.47678764  1
  Rb  Rb49  1  0.63407659  0.78028298  0.97678782  1
  Rb  Rb50  1  0.13407681  0.78028319  0.52321236  1
  Rb  Rb51  1  0.36592341  0.21971702  0.02321218  1
  Rb  Rb52  1  0.29345922  0.11939057  0.52629535  1
  Rb  Rb53  1  0.20654014  0.88060910  0.02629537  1
  Rb  Rb54  1  0.70654078  0.88060943  0.47370465  1
  Rb  Rb55  1  0.79345986  0.11939090  0.97370463  1
  Rb  Rb56  1  0.62795272  0.30319039  0.53234447  1
  Rb  Rb57  1  0.87204745  0.69681131  0.03234441  1
  Rb  Rb58  1  0.37204728  0.69680961  0.46765553  1
  Rb  Rb59  1  0.12795255  0.30318869  0.96765559  1
  Rb  Rb60  1  0.19754491  0.35615878  0.46474942  1
  Rb  Rb61  1  0.30245456  0.64383958  0.96474934  1
  Rb  Rb62  1  0.80245509  0.64384122  0.53525058  1
  Rb  Rb63  1  0.69754544  0.35616042  0.03525066  1
  Mn  Mn64  1  0.00336180  0.49011052  0.34952630  1
  Mn  Mn65  1  0.49663860  0.50988766  0.84952639  1
  Mn  Mn66  1  0.99663820  0.50988948  0.65047370  1
  Mn  Mn67  1  0.50336140  0.49011234  0.15047361  1
  Mn  Mn68  1  0.99193814  0.00191168  0.34869853  1
  Mn  Mn69  1  0.50806438  0.99809060  0.84869884  1
  Mn  Mn70  1  0.00806186  0.99808832  0.65130147  1
  Mn  Mn71  1  0.49193562  0.00190940  0.15130116  1
  Mn  Mn72  1  0.48506631  0.50546832  0.34842736  1
  Mn  Mn73  1  0.01493301  0.49453116  0.84842734  1
  Mn  Mn74  1  0.51493369  0.49453168  0.65157264  1
  Mn  Mn75  1  0.98506699  0.50546884  0.15157266  1
  Mn  Mn76  1  0.50897845  0.98547713  0.34997057  1
  Mn  Mn77  1  0.99102032  0.01452157  0.84997160  1
  Mn  Mn78  1  0.49102155  0.01452287  0.65002943  1
  Mn  Mn79  1  0.00897968  0.98547843  0.15002840  1
  Mn  Mn80  1  0.45483439  0.95273284  0.25059781  1
  Mn  Mn81  1  0.04516361  0.04726749  0.75059689  1
  Mn  Mn82  1  0.54516561  0.04726716  0.74940219  1
  Mn  Mn83  1  0.95483639  0.95273251  0.24940311  1
  Mn  Mn84  1  0.95288466  0.45084861  0.25052396  1
  Mn  Mn85  1  0.54711415  0.54915134  0.75052329  1
  Mn  Mn86  1  0.04711534  0.54915139  0.74947604  1
  Mn  Mn87  1  0.45288585  0.45084866  0.24947671  1
  Mn  Mn88  1  0.01596303  0.02595647  0.45015302  1
  Mn  Mn89  1  0.48403582  0.97404477  0.95015225  1
  Mn  Mn90  1  0.98403697  0.97404353  0.54984698  1
  Mn  Mn91  1  0.51596418  0.02595523  0.04984775  1
  Mn  Mn92  1  0.52167342  0.52610061  0.45007752  1
  Mn  Mn93  1  0.97832704  0.47390102  0.95007813  1
  Mn  Mn94  1  0.47832658  0.47389939  0.54992248  1
  Mn  Mn95  1  0.02167296  0.52609898  0.04992187  1
  Mn  Mn96  1  0.02681183  0.51965904  0.45004492  1
  Mn  Mn97  1  0.47318795  0.48034108  0.95004402  1
  Mn  Mn98  1  0.97318817  0.48034096  0.54995508  1
  Mn  Mn99  1  0.52681205  0.51965892  0.04995598  1
  Mn  Mn100  1  0.52740894  0.02040224  0.45059911  1
  Mn  Mn101  1  0.97258719  0.97959549  0.95059818  1
  Mn  Mn102  1  0.47259106  0.97959776  0.54940089  1
  Mn  Mn103  1  0.02741281  0.02040451  0.04940182  1
  O  O104  1  0.36741678  0.96215862  0.31153593  1
  O  O105  1  0.13258513  0.03784152  0.81153570  1
  O  O106  1  0.63258322  0.03784138  0.68846407  1
  O  O107  1  0.86741487  0.96215848  0.18846430  1
  O  O108  1  0.92211049  0.85076725  0.31064301  1
  O  O109  1  0.57788872  0.14923211  0.81064265  1
  O  O110  1  0.07788951  0.14923275  0.68935699  1
  O  O111  1  0.42211128  0.85076789  0.18935735  1
  O  O112  1  0.10783560  0.53883049  0.29402784  1
  O  O113  1  0.39216415  0.46117007  0.79402807  1
  O  O114  1  0.89216440  0.46116951  0.70597216  1
  O  O115  1  0.60783585  0.53882993  0.20597193  1
  O  O116  1  0.39006863  0.52192252  0.39910159  1
  O  O117  1  0.10993315  0.47807783  0.89910179  1
  O  O118  1  0.60993137  0.47807748  0.60089841  1
  O  O119  1  0.89006685  0.52192217  0.10089821  1
  O  O120  1  0.13161940  0.52886852  0.50845015  1
  O  O121  1  0.36838025  0.47113110  0.00845007  1
  O  O122  1  0.86838060  0.47113148  0.49154985  1
  O  O123  1  0.63161975  0.52886890  0.99154993  1
  O  O124  1  0.97976704  0.37629748  0.39951805  1
  O  O125  1  0.52023243  0.62370210  0.89951787  1
  O  O126  1  0.02023296  0.62370252  0.60048195  1
  O  O127  1  0.47976757  0.37629790  0.10048213  1
  O  O128  1  0.59706676  0.96771742  0.29621208  1
  O  O129  1  0.90293343  0.03228335  0.79621184  1
  O  O130  1  0.40293324  0.03228258  0.70378792  1
  O  O131  1  0.09706657  0.96771665  0.20378816  1
  O  O132  1  0.02737929  0.10924613  0.29420052  1
  O  O133  1  0.47261992  0.89075212  0.79419985  1
  O  O134  1  0.97262071  0.89075387  0.70579948  1
  O  O135  1  0.52738008  0.10924788  0.20580015  1
  O  O136  1  0.87507341  0.95776740  0.39902983  1
  O  O137  1  0.62492656  0.04223188  0.89903083  1
  O  O138  1  0.12492659  0.04223260  0.60097017  1
  O  O139  1  0.37507344  0.95776812  0.10096917  1
  O  O140  1  0.36418630  0.94084625  0.48951091  1
  O  O141  1  0.13581559  0.05915425  0.98951127  1
  O  O142  1  0.63581370  0.05915375  0.51048909  1
  O  O143  1  0.86418441  0.94084575  0.01048873  1
  O  O144  1  0.56421428  0.63681669  0.50908381  1
  O  O145  1  0.93578567  0.36318255  0.00908388  1
  O  O146  1  0.43578572  0.36318331  0.49091619  1
  O  O147  1  0.06421433  0.63681745  0.99091612  1
  O  O148  1  0.46080510  0.36360835  0.31017284  1
  O  O149  1  0.03919573  0.63639242  0.81017275  1
  O  O150  1  0.53919490  0.63639165  0.68982716  1
  O  O151  1  0.96080427  0.36360758  0.18982725  1
  O  O152  1  0.85196398  0.39987097  0.31259630  1
  O  O153  1  0.64803661  0.60012902  0.81259700  1
  O  O154  1  0.14803602  0.60012903  0.68740370  1
  O  O155  1  0.35196339  0.39987098  0.18740300  1
  O  O156  1  0.52970431  0.89303682  0.40050358  1
  O  O157  1  0.97029576  0.10696365  0.90050358  1
  O  O158  1  0.47029569  0.10696318  0.59949642  1
  O  O159  1  0.02970424  0.89303635  0.09949642  1
  O  O160  1  0.62305919  0.53635848  0.38889247  1
  O  O161  1  0.87694117  0.46364276  0.88889289  1
  O  O162  1  0.37694081  0.46364152  0.61110753  1
  O  O163  1  0.12305883  0.53635724  0.11110711  1
  O  O164  1  0.13242842  0.08901735  0.38987710  1
  O  O165  1  0.36757045  0.91098319  0.88987783  1
  O  O166  1  0.86757158  0.91098265  0.61012290  1
  O  O167  1  0.63242955  0.08901681  0.11012217  1
  O  O168  1  0.07458179  0.63399126  0.38998463  1
  O  O169  1  0.42541987  0.36601039  0.88998437  1
  O  O170  1  0.92541821  0.36600874  0.61001537  1
  O  O171  1  0.57458013  0.63398961  0.11001563  1
  O  O172  1  0.01274150  0.12540584  0.50854319  1
  O  O173  1  0.48725901  0.87459525  0.00854322  1
  O  O174  1  0.98725850  0.87459416  0.49145681  1
  O  O175  1  0.51274099  0.12540475  0.99145678  1
  O  O176  1  0.45264974  0.58400240  0.29495959  1
  O  O177  1  0.04735133  0.41599900  0.79495956  1
  O  O178  1  0.54735026  0.41599760  0.70504041  1
  O  O179  1  0.95264867  0.58400100  0.20504044  1
  O  O180  1  0.54213714  0.12456889  0.39030914  1
  O  O181  1  0.95786335  0.87543211  0.89030933  1
  O  O182  1  0.45786286  0.87543111  0.60969086  1
  O  O183  1  0.04213665  0.12456789  0.10969067  1
