# generated using pymatgen
data_BaMo(PO4)2
_symmetry_space_group_name_H-M   'P 1'
_cell_length_a   4.97427611
_cell_length_b   5.00243607
_cell_length_c   7.97844092
_cell_angle_alpha   86.29913153
_cell_angle_beta   86.81542103
_cell_angle_gamma   64.64845287
_symmetry_Int_Tables_number   1
_chemical_formula_structural   BaMo(PO4)2
_chemical_formula_sum   'Ba1 Mo1 P2 O8'
_cell_volume   178.95254202
_cell_formula_units_Z   1
loop_
 _symmetry_equiv_pos_site_id
 _symmetry_equiv_pos_as_xyz
  1  'x, y, z'
loop_
 _atom_site_type_symbol
 _atom_site_label
 _atom_site_symmetry_multiplicity
 _atom_site_fract_x
 _atom_site_fract_y
 _atom_site_fract_z
 _atom_site_occupancy
  Ba  Ba0  1  0.00000000  -0.00000000  0.00000000  1
  Mo  Mo1  1  0.00000000  -0.00000000  0.50000000  1
  P  P2  1  0.36391032  0.36792259  0.28805758  1
  P  P3  1  0.63608968  0.63207741  0.71194242  1
  O  O4  1  0.75742784  0.29279048  0.69045188  1
  O  O5  1  0.69288914  0.68695687  0.88938679  1
  O  O6  1  0.24257216  0.70720952  0.30954812  1
  O  O7  1  0.22531156  0.24053318  0.43232306  1
  O  O8  1  0.77468844  0.75946682  0.56767694  1
  O  O9  1  0.71013646  0.22001280  0.31174103  1
  O  O10  1  0.30711086  0.31304313  0.11061321  1
  O  O11  1  0.28986354  0.77998720  0.68825897  1
