# generated using pymatgen
data_Ba2ReN3
_symmetry_space_group_name_H-M   'P 1'
_cell_length_a   6.65882796
_cell_length_b   11.88201934
_cell_length_c   13.38998396
_cell_angle_alpha   90.00000178
_cell_angle_beta   89.99145410
_cell_angle_gamma   153.15107760
_symmetry_Int_Tables_number   1
_chemical_formula_structural   Ba2ReN3
_chemical_formula_sum   'Ba8 Re4 N12'
_cell_volume   478.47584368
_cell_formula_units_Z   4
loop_
 _symmetry_equiv_pos_site_id
 _symmetry_equiv_pos_as_xyz
  1  'x, y, z'
loop_
 _atom_site_type_symbol
 _atom_site_label
 _atom_site_symmetry_multiplicity
 _atom_site_fract_x
 _atom_site_fract_y
 _atom_site_fract_z
 _atom_site_occupancy
  Ba  Ba0  1  0.50024030  0.06564980  0.86695483  1
  Ba  Ba1  1  0.49975970  0.56540950  0.63304517  1
  Ba  Ba2  1  0.49975970  0.93435020  0.13304517  1
  Ba  Ba3  1  0.50024030  0.43459050  0.36695483  1
  Ba  Ba4  1  0.49968258  0.85998195  0.58254610  1
  Ba  Ba5  1  0.50031742  0.36029836  0.91745390  1
  Ba  Ba6  1  0.50031742  0.14001805  0.41745390  1
  Ba  Ba7  1  0.49968258  0.63970164  0.08254610  1
  Re  Re8  1  0.49988261  0.23968559  0.66366723  1
  Re  Re9  1  0.50011739  0.73980298  0.83633277  1
  Re  Re10  1  0.50011739  0.76031441  0.33633277  1
  Re  Re11  1  0.49988261  0.26019702  0.16366723  1
  N  N12  1  1.00000000  0.51341229  0.75000000  1
  N  N13  1  0.00000000  0.48658771  0.25000000  1
  N  N14  1  0.49917989  0.08947055  0.62421042  1
  N  N15  1  0.50082011  0.59029067  0.87578958  1
  N  N16  1  0.50082011  0.91052945  0.37578958  1
  N  N17  1  0.49917989  0.40970933  0.12421042  1
  N  N18  1  0.50031772  0.16328161  0.05280578  1
  N  N19  1  0.49968228  0.66296390  0.44719422  1
  N  N20  1  0.49968228  0.83671839  0.94719422  1
  N  N21  1  0.50031772  0.33703610  0.55280578  1
  N  N22  1  1.00000000  0.01384834  0.75000000  1
  N  N23  1  0.00000000  0.98615166  0.25000000  1
