# generated using pymatgen
data_Tb3(SbPd2)4
_symmetry_space_group_name_H-M   'P 1'
_cell_length_a   9.40467151
_cell_length_b   9.40467151
_cell_length_c   9.40467151
_cell_angle_alpha   60.00000000
_cell_angle_beta   60.00000000
_cell_angle_gamma   60.00000000
_symmetry_Int_Tables_number   1
_chemical_formula_structural   Tb3(SbPd2)4
_chemical_formula_sum   'Tb6 Sb8 Pd16'
_cell_volume   588.18764130
_cell_formula_units_Z   2
loop_
 _symmetry_equiv_pos_site_id
 _symmetry_equiv_pos_as_xyz
  1  'x, y, z'
loop_
 _atom_site_type_symbol
 _atom_site_label
 _atom_site_symmetry_multiplicity
 _atom_site_fract_x
 _atom_site_fract_y
 _atom_site_fract_z
 _atom_site_occupancy
  Tb  Tb0  1  0.72455300  0.27544700  0.27544700  1
  Tb  Tb1  1  0.27544700  0.72455300  0.72455300  1
  Tb  Tb2  1  0.27544700  0.72455300  0.27544700  1
  Tb  Tb3  1  0.72455300  0.27544700  0.72455300  1
  Tb  Tb4  1  0.27544700  0.27544700  0.72455300  1
  Tb  Tb5  1  0.72455300  0.72455300  0.27544700  1
  Sb  Sb6  1  0.00000000  0.00000000  0.00000000  1
  Sb  Sb7  1  0.50000000  0.00000000  0.00000000  1
  Sb  Sb8  1  0.00000000  0.50000000  0.50000000  1
  Sb  Sb9  1  0.00000000  0.50000000  0.00000000  1
  Sb  Sb10  1  0.50000000  0.00000000  0.50000000  1
  Sb  Sb11  1  0.00000000  0.00000000  0.50000000  1
  Sb  Sb12  1  0.50000000  0.50000000  0.00000000  1
  Sb  Sb13  1  0.50000000  0.50000000  0.50000000  1
  Pd  Pd14  1  0.11861500  0.11861500  0.11861500  1
  Pd  Pd15  1  0.88138500  0.88138500  0.88138500  1
  Pd  Pd16  1  0.11861500  0.11861500  0.64415500  1
  Pd  Pd17  1  0.11861500  0.64415500  0.11861500  1
  Pd  Pd18  1  0.88138500  0.88138500  0.35584500  1
  Pd  Pd19  1  0.88138500  0.35584500  0.88138500  1
  Pd  Pd20  1  0.64415500  0.11861500  0.11861500  1
  Pd  Pd21  1  0.35584500  0.88138500  0.88138500  1
  Pd  Pd22  1  0.33238100  0.33238100  0.33238100  1
  Pd  Pd23  1  0.66761900  0.66761900  0.66761900  1
  Pd  Pd24  1  0.33238100  0.33238100  0.00285600  1
  Pd  Pd25  1  0.33238100  0.00285600  0.33238100  1
  Pd  Pd26  1  0.66761900  0.66761900  0.99714400  1
  Pd  Pd27  1  0.66761900  0.99714400  0.66761900  1
  Pd  Pd28  1  0.00285600  0.33238100  0.33238100  1
  Pd  Pd29  1  0.99714400  0.66761900  0.66761900  1
