# generated using pymatgen
data_Sr8Fe8O23
_symmetry_space_group_name_H-M   'P 1'
_cell_length_a   8.76665488
_cell_length_b   8.76665488
_cell_length_c   8.76665488
_cell_angle_alpha   101.52393726
_cell_angle_beta   101.52393726
_cell_angle_gamma   126.90180175
_symmetry_Int_Tables_number   1
_chemical_formula_structural   Sr8Fe8O23
_chemical_formula_sum   'Sr8 Fe8 O23'
_cell_volume   481.96518604
_cell_formula_units_Z   1
loop_
 _symmetry_equiv_pos_site_id
 _symmetry_equiv_pos_as_xyz
  1  'x, y, z'
loop_
 _atom_site_type_symbol
 _atom_site_label
 _atom_site_symmetry_multiplicity
 _atom_site_fract_x
 _atom_site_fract_y
 _atom_site_fract_z
 _atom_site_occupancy
  Sr  Sr0  1  0.75237500  0.50000000  0.25237500  1
  Sr  Sr1  1  0.50000000  0.24762500  0.74762500  1
  Sr  Sr2  1  0.50000000  0.75237500  0.25237500  1
  Sr  Sr3  1  0.24762500  0.50000000  0.74762500  1
  Sr  Sr4  1  0.25940400  0.00000000  0.25940400  1
  Sr  Sr5  1  0.00000000  0.74059600  0.74059600  1
  Sr  Sr6  1  0.00000000  0.25940400  0.25940400  1
  Sr  Sr7  1  0.74059600  0.00000000  0.74059600  1
  Fe  Fe8  1  0.75000000  0.25000000  0.50000000  1
  Fe  Fe9  1  0.25000000  0.75000000  0.50000000  1
  Fe  Fe10  1  0.00000000  0.50000000  0.00000000  1
  Fe  Fe11  1  0.50000000  0.50000000  0.50000000  1
  Fe  Fe12  1  0.00000000  0.00000000  0.50000000  1
  Fe  Fe13  1  0.50000000  0.00000000  0.00000000  1
  Fe  Fe14  1  0.25545300  0.25545300  0.00000000  1
  Fe  Fe15  1  0.74454700  0.74454700  0.00000000  1
  O  O16  1  0.00000000  0.50000000  0.50000000  1
  O  O17  1  0.50000000  0.00000000  0.50000000  1
  O  O18  1  0.12474800  0.87525200  0.50000000  1
  O  O19  1  0.87525200  0.37525200  0.75050300  1
  O  O20  1  0.62474800  0.12474800  0.24949700  1
  O  O21  1  0.37525200  0.62474800  0.50000000  1
  O  O22  1  0.87525200  0.12474800  0.50000000  1
  O  O23  1  0.12474800  0.62474800  0.24949700  1
  O  O24  1  0.37525200  0.87525200  0.75050300  1
  O  O25  1  0.62474800  0.37525200  0.50000000  1
  O  O26  1  0.73626800  0.26373200  0.00000000  1
  O  O27  1  0.26373200  0.26373200  0.52746400  1
  O  O28  1  0.73626800  0.73626800  0.47253600  1
  O  O29  1  0.26373200  0.73626800  0.00000000  1
  O  O30  1  0.09810200  0.09810200  0.75947200  1
  O  O31  1  0.33863000  0.33863000  0.24052800  1
  O  O32  1  0.50000000  0.50000000  0.00000000  1
  O  O33  1  0.66137000  0.90189800  0.00000000  1
  O  O34  1  0.90189800  0.90189800  0.24052800  1
  O  O35  1  0.66137000  0.66137000  0.75947200  1
  O  O36  1  0.90189800  0.66137000  0.00000000  1
  O  O37  1  0.33863000  0.09810200  0.00000000  1
  O  O38  1  0.09810200  0.33863000  0.00000000  1
