# generated using pymatgen
data_La2NiRhO6
_symmetry_space_group_name_H-M   'P 1'
_cell_length_a   5.70226404
_cell_length_b   9.69423105
_cell_length_c   9.68383118
_cell_angle_alpha   70.28911009
_cell_angle_beta   89.98839447
_cell_angle_gamma   89.99074338
_symmetry_Int_Tables_number   1
_chemical_formula_structural   La2NiRhO6
_chemical_formula_sum   'La8 Ni4 Rh4 O24'
_cell_volume   503.94722847
_cell_formula_units_Z   4
loop_
 _symmetry_equiv_pos_site_id
 _symmetry_equiv_pos_as_xyz
  1  'x, y, z'
loop_
 _atom_site_type_symbol
 _atom_site_label
 _atom_site_symmetry_multiplicity
 _atom_site_fract_x
 _atom_site_fract_y
 _atom_site_fract_z
 _atom_site_occupancy
  La  La0  1  0.55155600  0.88143800  0.36894200  1
  La  La1  1  0.55077700  0.38058000  0.87056300  1
  La  La2  1  0.05076700  0.11929500  0.12944300  1
  La  La3  1  0.05142500  0.61851200  0.63091500  1
  La  La4  1  0.44861100  0.11834800  0.63099600  1
  La  La5  1  0.44900600  0.61960900  0.12948300  1
  La  La6  1  0.94907600  0.88042300  0.87066200  1
  La  La7  1  0.94871700  0.38178900  0.36894000  1
  Ni  Ni8  1  0.49991300  0.49998600  0.49996300  1
  Ni  Ni9  1  0.99994800  0.00003700  0.49994600  1
  Ni  Ni10  1  0.50004500  0.99997100  0.00004000  1
  Ni  Ni11  1  0.99999100  0.50001200  0.00005700  1
  Rh  Rh12  1  0.49924900  0.25006700  0.25083100  1
  Rh  Rh13  1  0.50069700  0.74993800  0.74917100  1
  Rh  Rh14  1  0.00070800  0.75001600  0.25080900  1
  Rh  Rh15  1  0.99919000  0.24993800  0.74916200  1
  O  O16  1  0.79638500  0.92025500  0.12792100  1
  O  O17  1  0.79691600  0.42130000  0.62734900  1
  O  O18  1  0.29696400  0.07867700  0.37266700  1
  O  O19  1  0.29657500  0.57985900  0.87207800  1
  O  O20  1  0.20329400  0.07999000  0.87195000  1
  O  O21  1  0.20343700  0.57848000  0.37283700  1
  O  O22  1  0.70316700  0.92142400  0.62720100  1
  O  O23  1  0.70336700  0.42003700  0.12804700  1
  O  O24  1  0.20822200  0.87400900  0.67487100  1
  O  O25  1  0.20956500  0.37366600  0.17384100  1
  O  O26  1  0.70965700  0.12634500  0.82616000  1
  O  O27  1  0.70804800  0.62589000  0.32514900  1
  O  O28  1  0.79170300  0.12600200  0.32502900  1
  O  O29  1  0.79054200  0.62634600  0.82622800  1
  O  O30  1  0.29079600  0.87377000  0.17379400  1
  O  O31  1  0.29160200  0.37399800  0.67493500  1
  O  O32  1  0.97561700  0.82826600  0.41982400  1
  O  O33  1  0.97632100  0.32970300  0.91791800  1
  O  O34  1  0.47559500  0.67168600  0.58040600  1
  O  O35  1  0.47629500  0.17033800  0.08200300  1
  O  O36  1  0.02438500  0.17177500  0.58042200  1
  O  O37  1  0.02372500  0.67030600  0.08184800  1
  O  O38  1  0.52446400  0.32818100  0.41965600  1
  O  O39  1  0.52368200  0.82973700  0.91794600  1
