# generated using pymatgen
data_Cs2PtCl4
_symmetry_space_group_name_H-M   'P 1'
_cell_length_a   7.53945296
_cell_length_b   7.53945352
_cell_length_c   9.66508905
_cell_angle_alpha   90.00000000
_cell_angle_beta   90.00000000
_cell_angle_gamma   89.98392622
_symmetry_Int_Tables_number   1
_chemical_formula_structural   Cs2PtCl4
_chemical_formula_sum   'Cs4 Pt2 Cl8'
_cell_volume   549.39606777
_cell_formula_units_Z   2
loop_
 _symmetry_equiv_pos_site_id
 _symmetry_equiv_pos_as_xyz
  1  'x, y, z'
loop_
 _atom_site_type_symbol
 _atom_site_label
 _atom_site_symmetry_multiplicity
 _atom_site_fract_x
 _atom_site_fract_y
 _atom_site_fract_z
 _atom_site_occupancy
  Cs  Cs0  1  0.50008416  0.99996744  0.75000000  1
  Cs  Cs1  1  0.00003256  0.49991584  0.25000000  1
  Cs  Cs2  1  0.49991584  0.00003256  0.25000000  1
  Cs  Cs3  1  0.99996744  0.50008416  0.75000000  1
  Pt  Pt4  1  0.00000000  0.00000000  0.50000000  1
  Pt  Pt5  1  0.00000000  0.00000000  0.00000000  1
  Cl  Cl6  1  0.78134102  0.78134102  0.50000076  1
  Cl  Cl7  1  0.78134102  0.78134102  -0.00000076  1
  Cl  Cl8  1  0.21872017  0.78127983  0.00000000  1
  Cl  Cl9  1  0.78127983  0.21872017  0.50000000  1
  Cl  Cl10  1  0.78127983  0.21872017  0.00000000  1
  Cl  Cl11  1  0.21865898  0.21865898  0.49999924  1
  Cl  Cl12  1  0.21865898  0.21865898  0.00000076  1
  Cl  Cl13  1  0.21872017  0.78127983  0.50000000  1
