# generated using pymatgen
data_Zr3TaFe8
_symmetry_space_group_name_H-M   'P 1'
_cell_length_a   8.54957214
_cell_length_b   8.54957214
_cell_length_c   8.54957171
_cell_angle_alpha   33.52298369
_cell_angle_beta   33.52298369
_cell_angle_gamma   33.52298688
_symmetry_Int_Tables_number   1
_chemical_formula_structural   Zr3TaFe8
_chemical_formula_sum   'Zr3 Ta1 Fe8'
_cell_volume   169.76836052
_cell_formula_units_Z   1
loop_
 _symmetry_equiv_pos_site_id
 _symmetry_equiv_pos_as_xyz
  1  'x, y, z'
loop_
 _atom_site_type_symbol
 _atom_site_label
 _atom_site_symmetry_multiplicity
 _atom_site_fract_x
 _atom_site_fract_y
 _atom_site_fract_z
 _atom_site_occupancy
  Zr  Zr0  1  0.62502300  0.62502300  0.62502300  1
  Zr  Zr1  1  0.00093300  0.00093300  0.00093300  1
  Zr  Zr2  1  0.49910600  0.49910600  0.49910600  1
  Ta  Ta3  1  0.12494700  0.12494700  0.12494700  1
  Fe  Fe4  1  0.56360200  0.06410200  0.56360200  1
  Fe  Fe5  1  0.06198300  0.55992300  0.06198300  1
  Fe  Fe6  1  0.06410200  0.56360200  0.56360200  1
  Fe  Fe7  1  0.55992300  0.06198300  0.06198300  1
  Fe  Fe8  1  0.81227700  0.81227700  0.81227700  1
  Fe  Fe9  1  0.31251900  0.31251900  0.31251900  1
  Fe  Fe10  1  0.56360200  0.56360200  0.06410200  1
  Fe  Fe11  1  0.06198300  0.06198300  0.55992300  1
