# generated using pymatgen
data_NdSbIr
_symmetry_space_group_name_H-M   'P 1'
_cell_length_a   4.58802600
_cell_length_b   7.44978800
_cell_length_c   8.03472700
_cell_angle_alpha   90.00000000
_cell_angle_beta   90.00000000
_cell_angle_gamma   90.00000000
_symmetry_Int_Tables_number   1
_chemical_formula_structural   NdSbIr
_chemical_formula_sum   'Nd4 Sb4 Ir4'
_cell_volume   274.62553095
_cell_formula_units_Z   4
loop_
 _symmetry_equiv_pos_site_id
 _symmetry_equiv_pos_as_xyz
  1  'x, y, z'
loop_
 _atom_site_type_symbol
 _atom_site_label
 _atom_site_symmetry_multiplicity
 _atom_site_fract_x
 _atom_site_fract_y
 _atom_site_fract_z
 _atom_site_occupancy
  Nd  Nd0  1  0.25000000  0.51709900  0.18985800  1
  Nd  Nd1  1  0.75000000  0.48290100  0.81014200  1
  Nd  Nd2  1  0.75000000  0.98290100  0.68985800  1
  Nd  Nd3  1  0.25000000  0.01709900  0.31014200  1
  Sb  Sb4  1  0.25000000  0.67324300  0.58664100  1
  Sb  Sb5  1  0.75000000  0.32675700  0.41335900  1
  Sb  Sb6  1  0.75000000  0.82675700  0.08664100  1
  Sb  Sb7  1  0.25000000  0.17324300  0.91335900  1
  Ir  Ir8  1  0.25000000  0.79757200  0.90709900  1
  Ir  Ir9  1  0.75000000  0.20242800  0.09290100  1
  Ir  Ir10  1  0.75000000  0.70242800  0.40709900  1
  Ir  Ir11  1  0.25000000  0.29757200  0.59290100  1
