# generated using pymatgen
data_Na11(Ru4O9)4
_symmetry_space_group_name_H-M   'P 1'
_cell_length_a   5.73123300
_cell_length_b   11.55086535
_cell_length_c   11.97488059
_cell_angle_alpha   73.81456995
_cell_angle_beta   83.22349175
_cell_angle_gamma   75.66076700
_symmetry_Int_Tables_number   1
_chemical_formula_structural   Na11(Ru4O9)4
_chemical_formula_sum   'Na11 Ru16 O36'
_cell_volume   736.58473356
_cell_formula_units_Z   1
loop_
 _symmetry_equiv_pos_site_id
 _symmetry_equiv_pos_as_xyz
  1  'x, y, z'
loop_
 _atom_site_type_symbol
 _atom_site_label
 _atom_site_symmetry_multiplicity
 _atom_site_fract_x
 _atom_site_fract_y
 _atom_site_fract_z
 _atom_site_occupancy
  Na  Na0  1  0.97600000  0.91762000  0.27066100  1
  Na  Na1  1  0.48622900  0.89093100  0.27089500  1
  Na  Na2  1  0.50999600  0.10984200  0.73212500  1
  Na  Na3  1  0.01658400  0.10245100  0.72822900  1
  Na  Na4  1  0.48102000  0.39891100  0.29100200  1
  Na  Na5  1  0.97505100  0.40243300  0.28760800  1
  Na  Na6  1  0.02550700  0.59631800  0.70497000  1
  Na  Na7  1  0.52397700  0.59546700  0.70450700  1
  Na  Na8  1  0.36342500  0.19255300  0.13937300  1
  Na  Na9  1  0.63161200  0.81022400  0.85160900  1
  Na  Na10  1  0.12852400  0.80950200  0.85900000  1
  Ru  Ru11  1  0.36230500  0.69214200  0.11803200  1
  Ru  Ru12  1  0.88836700  0.68570600  0.11973600  1
  Ru  Ru13  1  0.10006200  0.31135900  0.88289800  1
  Ru  Ru14  1  0.64811700  0.31071800  0.88015300  1
  Ru  Ru15  1  0.33194900  0.62396600  0.42556700  1
  Ru  Ru16  1  0.82911400  0.62567800  0.42778100  1
  Ru  Ru17  1  0.16836400  0.37603300  0.57482600  1
  Ru  Ru18  1  0.67001000  0.37439900  0.57147200  1
  Ru  Ru19  1  0.95128500  0.86956900  0.54579300  1
  Ru  Ru20  1  0.40855900  0.86540000  0.54867300  1
  Ru  Ru21  1  0.54964800  0.12864200  0.45892800  1
  Ru  Ru22  1  0.09198500  0.13322300  0.45541300  1
  Ru  Ru23  1  0.52494900  0.99899200  0.99836900  1
  Ru  Ru24  1  0.97814000  0.00002800  0.00094200  1
  Ru  Ru25  1  0.27584700  0.50072800  0.99741300  1
  Ru  Ru26  1  0.72548700  0.50475500  0.99870200  1
  O  O27  1  0.06547700  0.82022800  0.06106900  1
  O  O28  1  0.58719200  0.81208800  0.05881800  1
  O  O29  1  0.42732800  0.18912200  0.93546300  1
  O  O30  1  0.92141600  0.17634400  0.93780500  1
  O  O31  1  0.79342100  0.97819900  0.87344100  1
  O  O32  1  0.28648500  0.98072200  0.89285700  1
  O  O33  1  0.70431500  0.01571500  0.12378100  1
  O  O34  1  0.22269000  0.01160500  0.10454900  1
  O  O35  1  0.02328100  0.72270200  0.47921200  1
  O  O36  1  0.51312200  0.72458500  0.47675100  1
  O  O37  1  0.47644000  0.27380600  0.52561700  1
  O  O38  1  0.98616600  0.27575300  0.52437100  1
  O  O39  1  0.17254100  0.96052900  0.42162600  1
  O  O40  1  0.66151800  0.94903500  0.43887100  1
  O  O41  1  0.32831800  0.03760100  0.58295000  1
  O  O42  1  0.83963300  0.04812700  0.56690300  1
  O  O43  1  0.19500700  0.54546100  0.15558900  1
  O  O44  1  0.67694300  0.55764900  0.15362200  1
  O  O45  1  0.32100800  0.43470300  0.84971400  1
  O  O46  1  0.80620200  0.46003400  0.84242700  1
  O  O47  1  0.18760100  0.78320200  0.67273600  1
  O  O48  1  0.68828400  0.79941300  0.65500100  1
  O  O49  1  0.31298700  0.21410200  0.33173200  1
  O  O50  1  0.81048400  0.19688500  0.35591600  1
  O  O51  1  0.14523300  0.49928700  0.40977800  1
  O  O52  1  0.65041200  0.49876100  0.40762200  1
  O  O53  1  0.35457900  0.50113200  0.59095700  1
  O  O54  1  0.84896400  0.50187000  0.59033400  1
  O  O55  1  0.31288800  0.72604000  0.26859000  1
  O  O56  1  0.82623500  0.72260100  0.26976800  1
  O  O57  1  0.17480200  0.27403400  0.73244400  1
  O  O58  1  0.68767800  0.27454800  0.72917100  1
  O  O59  1  0.94700500  0.62902500  0.96243000  1
  O  O60  1  0.43607700  0.64808100  0.95194900  1
  O  O61  1  0.56550900  0.35860100  0.04150400  1
  O  O62  1  0.05179500  0.38152500  0.03395600  1
