# generated using pymatgen
data_NaMn(GeO3)2
_symmetry_space_group_name_H-M   'P 1'
_cell_length_a   5.68838311
_cell_length_b   6.69050022
_cell_length_c   6.69050437
_cell_angle_alpha   83.00778800
_cell_angle_beta   78.59493967
_cell_angle_gamma   78.59493244
_symmetry_Int_Tables_number   1
_chemical_formula_structural   NaMn(GeO3)2
_chemical_formula_sum   'Na2 Mn2 Ge4 O12'
_cell_volume   243.76507939
_cell_formula_units_Z   2
loop_
 _symmetry_equiv_pos_site_id
 _symmetry_equiv_pos_as_xyz
  1  'x, y, z'
loop_
 _atom_site_type_symbol
 _atom_site_label
 _atom_site_symmetry_multiplicity
 _atom_site_fract_x
 _atom_site_fract_y
 _atom_site_fract_z
 _atom_site_occupancy
  Na  Na0  1  0.75000000  0.80070200  0.19929800  1
  Na  Na1  1  0.25000000  0.19929800  0.80070200  1
  Mn  Mn2  1  0.75000100  0.40951900  0.59048200  1
  Mn  Mn3  1  0.25000100  0.59048400  0.40951600  1
  Ge  Ge4  1  0.74065400  0.30126300  0.11726200  1
  Ge  Ge5  1  0.75934600  0.88273800  0.69873700  1
  Ge  Ge6  1  0.25934600  0.69873600  0.88273700  1
  Ge  Ge7  1  0.24065400  0.11726200  0.30126300  1
  O  O8  1  0.65138500  0.47119100  0.31198200  1
  O  O9  1  0.84861500  0.68801900  0.52880900  1
  O  O10  1  0.34861500  0.52880900  0.68801800  1
  O  O11  1  0.15138600  0.31198200  0.47119100  1
  O  O12  1  0.51730500  0.14592200  0.12530300  1
  O  O13  1  0.98269500  0.87469700  0.85407800  1
  O  O14  1  0.48269500  0.85407800  0.87469700  1
  O  O15  1  0.01730500  0.12530300  0.14592200  1
  O  O16  1  0.68990200  0.13334200  0.58879800  1
  O  O17  1  0.81009800  0.41120300  0.86665800  1
  O  O18  1  0.31009800  0.86665800  0.41120300  1
  O  O19  1  0.18990100  0.58879700  0.13334200  1
