# generated using pymatgen
data_PrH10N(ClO4)2
_symmetry_space_group_name_H-M   'P 1'
_cell_length_a   6.58619400
_cell_length_b   12.32430400
_cell_length_c   12.72956373
_cell_angle_alpha   87.69308633
_cell_angle_beta   90.00000000
_cell_angle_gamma   90.00000000
_symmetry_Int_Tables_number   1
_chemical_formula_structural   PrH10N(ClO4)2
_chemical_formula_sum   'Pr4 H40 N4 Cl8 O32'
_cell_volume   1032.42454859
_cell_formula_units_Z   4
loop_
 _symmetry_equiv_pos_site_id
 _symmetry_equiv_pos_as_xyz
  1  'x, y, z'
loop_
 _atom_site_type_symbol
 _atom_site_label
 _atom_site_symmetry_multiplicity
 _atom_site_fract_x
 _atom_site_fract_y
 _atom_site_fract_z
 _atom_site_occupancy
  Pr  Pr0  1  0.71546800  0.50000000  0.75000000  1
  Pr  Pr1  1  0.28453200  0.50000000  0.25000000  1
  Pr  Pr2  1  0.25454000  0.00000000  0.75000000  1
  Pr  Pr3  1  0.74546000  0.00000000  0.25000000  1
  H  H4  1  0.99484800  0.77860100  0.26293800  1
  H  H5  1  0.00515200  0.22139900  0.73706200  1
  H  H6  1  0.99484800  0.22139900  0.23706200  1
  H  H7  1  0.00515200  0.77860100  0.76293800  1
  H  H8  1  0.84662200  0.98719500  0.87683900  1
  H  H9  1  0.15337800  0.01280500  0.12316100  1
  H  H10  1  0.84662200  0.01280500  0.62316100  1
  H  H11  1  0.15337800  0.98719500  0.37683900  1
  H  H12  1  0.88529800  0.78755200  0.37360800  1
  H  H13  1  0.11470200  0.21244800  0.62639200  1
  H  H14  1  0.88529800  0.21244800  0.12639200  1
  H  H15  1  0.11470200  0.78755200  0.87360800  1
  H  H16  1  0.94058200  0.89849100  0.59246600  1
  H  H17  1  0.05941800  0.10150900  0.40753400  1
  H  H18  1  0.94058200  0.10150900  0.90753400  1
  H  H19  1  0.05941800  0.89849100  0.09246600  1
  H  H20  1  0.84068200  0.47728900  0.16208400  1
  H  H21  1  0.15931800  0.52271100  0.83791600  1
  H  H22  1  0.84068200  0.52271100  0.33791600  1
  H  H23  1  0.15931800  0.47728900  0.66208400  1
  H  H24  1  0.37562100  0.78437100  0.63941800  1
  H  H25  1  0.62437900  0.21562900  0.36058200  1
  H  H26  1  0.37562100  0.21562900  0.86058200  1
  H  H27  1  0.62437900  0.78437100  0.13941800  1
  H  H28  1  0.40076700  0.87542600  0.54883800  1
  H  H29  1  0.59923300  0.12457400  0.45116200  1
  H  H30  1  0.40076700  0.12457400  0.95116200  1
  H  H31  1  0.59923300  0.87542600  0.04883800  1
  H  H32  1  0.59020300  0.71189400  0.87171100  1
  H  H33  1  0.40979700  0.28810600  0.12828900  1
  H  H34  1  0.59020300  0.28810600  0.62828900  1
  H  H35  1  0.40979700  0.71189400  0.37171100  1
  H  H36  1  0.59237300  0.61594400  0.95882600  1
  H  H37  1  0.40762700  0.38405600  0.04117400  1
  H  H38  1  0.59237300  0.38405600  0.54117400  1
  H  H39  1  0.40762700  0.61594400  0.45882600  1
  H  H40  1  0.97258200  0.40598500  0.09298100  1
  H  H41  1  0.02741800  0.59401500  0.90701900  1
  H  H42  1  0.97258200  0.59401500  0.40701900  1
  H  H43  1  0.02741800  0.40598500  0.59298100  1
  N  N44  1  0.85305500  0.68644300  0.58533800  1
  N  N45  1  0.14694500  0.31355700  0.41466200  1
  N  N46  1  0.85305500  0.31355700  0.91466200  1
  N  N47  1  0.14694500  0.68644300  0.08533800  1
  Cl  Cl48  1  0.37781600  0.60463300  0.63610900  1
  Cl  Cl49  1  0.62218400  0.39536700  0.36389100  1
  Cl  Cl50  1  0.37781600  0.39536700  0.86389100  1
  Cl  Cl51  1  0.62218400  0.60463300  0.13610900  1
  Cl  Cl52  1  0.55928200  0.88706400  0.87842800  1
  Cl  Cl53  1  0.44071800  0.11293600  0.12157200  1
  Cl  Cl54  1  0.55928200  0.11293600  0.62157200  1
  Cl  Cl55  1  0.44071800  0.88706400  0.37842800  1
  O  O56  1  0.90137300  0.82289500  0.30369300  1
  O  O57  1  0.09862700  0.17710500  0.69630700  1
  O  O58  1  0.90137300  0.17710500  0.19630700  1
  O  O59  1  0.09862700  0.82289500  0.80369300  1
  O  O60  1  0.82560100  0.59301200  0.55041600  1
  O  O61  1  0.17439900  0.40698800  0.44958400  1
  O  O62  1  0.82560100  0.40698800  0.94958400  1
  O  O63  1  0.17439900  0.59301200  0.05041600  1
  O  O64  1  0.96416700  0.43099300  0.16470000  1
  O  O65  1  0.03583300  0.56900700  0.83530000  1
  O  O66  1  0.96416700  0.56900700  0.33530000  1
  O  O67  1  0.03583300  0.43099300  0.66470000  1
  O  O68  1  0.90592000  0.76571100  0.52588500  1
  O  O69  1  0.09408000  0.23428900  0.47411500  1
  O  O70  1  0.90592000  0.23428900  0.97411500  1
  O  O71  1  0.09408000  0.76571100  0.02588500  1
  O  O72  1  0.97142600  0.96812700  0.62451400  1
  O  O73  1  0.02857400  0.03187300  0.37548600  1
  O  O74  1  0.97142600  0.03187300  0.87548600  1
  O  O75  1  0.02857400  0.96812700  0.12451400  1
  O  O76  1  0.61054000  0.63252600  0.88305300  1
  O  O77  1  0.38946000  0.36747400  0.11694700  1
  O  O78  1  0.61054000  0.36747400  0.61694700  1
  O  O79  1  0.38946000  0.63252600  0.38305300  1
  O  O80  1  0.37134600  0.86367400  0.62443000  1
  O  O81  1  0.62865400  0.13632600  0.37557000  1
  O  O82  1  0.37134600  0.13632600  0.87557000  1
  O  O83  1  0.62865400  0.86367400  0.12443000  1
  O  O84  1  0.82476600  0.69875400  0.68345900  1
  O  O85  1  0.17523400  0.30124600  0.31654100  1
  O  O86  1  0.82476600  0.30124600  0.81654100  1
  O  O87  1  0.17523400  0.69875400  0.18345900  1
