# generated using pymatgen
data_YCrO4
_symmetry_space_group_name_H-M   'P 1'
_cell_length_a   6.00791129
_cell_length_b   6.00604953
_cell_length_c   5.98986108
_cell_angle_alpha   73.97343052
_cell_angle_beta   73.91735107
_cell_angle_gamma   116.64545072
_symmetry_Int_Tables_number   1
_chemical_formula_structural   YCrO4
_chemical_formula_sum   'Y2 Cr2 O8'
_cell_volume   164.22334445
_cell_formula_units_Z   2
loop_
 _symmetry_equiv_pos_site_id
 _symmetry_equiv_pos_as_xyz
  1  'x, y, z'
loop_
 _atom_site_type_symbol
 _atom_site_label
 _atom_site_symmetry_multiplicity
 _atom_site_fract_x
 _atom_site_fract_y
 _atom_site_fract_z
 _atom_site_occupancy
  Y  Y0  1  0.87493700  0.62496600  0.25005400  1
  Y  Y1  1  0.12502400  0.37500800  0.75003900  1
  Cr  Cr2  1  0.37504200  0.12501500  0.24991600  1
  Cr  Cr3  1  0.62488900  0.87496400  0.75011400  1
  O  O4  1  0.36678700  0.29463900  0.43850300  1
  O  O5  1  0.79637500  0.23350900  0.57072100  1
  O  O6  1  0.80408800  0.86705300  0.92938000  1
  O  O7  1  0.73340000  0.30536100  0.06135800  1
  O  O8  1  0.19474200  0.76692000  0.43838400  1
  O  O9  1  0.63309400  0.69582600  0.57058800  1
  O  O10  1  0.26644100  0.70366300  0.92944400  1
  O  O11  1  0.20517900  0.13307600  0.06149800  1
