# generated using pymatgen
data_Rb2MgO2
_symmetry_space_group_name_H-M   'P 1'
_cell_length_a   11.03608538
_cell_length_b   6.47807543
_cell_length_c   5.56972381
_cell_angle_alpha   90.00000000
_cell_angle_beta   90.00000000
_cell_angle_gamma   90.00000000
_symmetry_Int_Tables_number   1
_chemical_formula_structural   Rb2MgO2
_chemical_formula_sum   'Rb8 Mg4 O8'
_cell_volume   398.19400050
_cell_formula_units_Z   4
loop_
 _symmetry_equiv_pos_site_id
 _symmetry_equiv_pos_as_xyz
  1  'x, y, z'
loop_
 _atom_site_type_symbol
 _atom_site_label
 _atom_site_symmetry_multiplicity
 _atom_site_fract_x
 _atom_site_fract_y
 _atom_site_fract_z
 _atom_site_occupancy
  Rb  Rb0  1  0.15451723  0.35836515  0.50177910  1
  Rb  Rb1  1  0.15451723  0.64163485  0.00177910  1
  Rb  Rb2  1  0.34548277  0.14163485  0.00177910  1
  Rb  Rb3  1  0.34548277  0.85836515  0.50177910  1
  Rb  Rb4  1  0.65451723  0.14163485  0.49822090  1
  Rb  Rb5  1  0.65451723  0.85836515  0.99822090  1
  Rb  Rb6  1  0.84548277  0.35836515  0.99822090  1
  Rb  Rb7  1  0.84548277  0.64163485  0.49822090  1
  Mg  Mg8  1  -0.00000000  0.00040431  0.25000000  1
  Mg  Mg9  1  0.00000000  0.99959569  0.75000000  1
  Mg  Mg10  1  0.50000000  0.49959569  0.75000000  1
  Mg  Mg11  1  0.50000000  0.50040431  0.25000000  1
  O  O12  1  0.09071616  0.16794202  0.99979149  1
  O  O13  1  0.09071616  0.83205798  0.49979149  1
  O  O14  1  0.40928384  0.33205798  0.49979149  1
  O  O15  1  0.40928384  0.66794202  0.99979149  1
  O  O16  1  0.59071616  0.33205798  0.00020851  1
  O  O17  1  0.59071616  0.66794202  0.50020851  1
  O  O18  1  0.90928384  0.16794202  0.50020851  1
  O  O19  1  0.90928384  0.83205798  0.00020851  1
