# generated using pymatgen
data_K2CoH4(I2O7)2
_symmetry_space_group_name_H-M   'P 1'
_cell_length_a   8.02335019
_cell_length_b   14.04944488
_cell_length_c   8.02398037
_cell_angle_alpha   75.56947417
_cell_angle_beta   60.28108998
_cell_angle_gamma   75.48842332
_symmetry_Int_Tables_number   1
_chemical_formula_structural   K2CoH4(I2O7)2
_chemical_formula_sum   'K4 Co2 H8 I8 O28'
_cell_volume   752.01237016
_cell_formula_units_Z   2
loop_
 _symmetry_equiv_pos_site_id
 _symmetry_equiv_pos_as_xyz
  1  'x, y, z'
loop_
 _atom_site_type_symbol
 _atom_site_label
 _atom_site_symmetry_multiplicity
 _atom_site_fract_x
 _atom_site_fract_y
 _atom_site_fract_z
 _atom_site_occupancy
  K  K0  1  0.65494500  0.99981600  0.34549300  1
  K  K1  1  0.15462800  0.49942700  0.84625100  1
  K  K2  1  0.13096400  0.99990000  0.86926300  1
  K  K3  1  0.63073200  0.49983100  0.36947200  1
  Co  Co4  1  0.82844100  0.74808800  0.67216900  1
  Co  Co5  1  0.32800100  0.24919000  0.17198600  1
  H  H6  1  0.71589700  0.23615700  0.90848600  1
  H  H7  1  0.21478200  0.73672300  0.40955500  1
  H  H8  1  0.59148300  0.26378000  0.78397800  1
  H  H9  1  0.08998600  0.76418100  0.28481900  1
  H  H10  1  0.98634400  0.31315900  0.48011100  1
  H  H11  1  0.48965200  0.81329200  0.97855700  1
  H  H12  1  0.01877000  0.18731700  0.51348000  1
  H  H13  1  0.52039400  0.68698100  0.01192600  1
  I  I14  1  0.15764400  0.00920600  0.35304600  1
  I  I15  1  0.65655000  0.50865400  0.85367600  1
  I  I16  1  0.14734700  0.49076700  0.34256300  1
  I  I17  1  0.64750900  0.99131200  0.84230400  1
  I  I18  1  0.38854200  0.24138300  0.57160700  1
  I  I19  1  0.88930400  0.74125500  0.07245300  1
  I  I20  1  0.92770700  0.25857000  0.11164900  1
  I  I21  1  0.42786000  0.75838300  0.61051700  1
  O  O22  1  0.06769400  0.25008700  0.43053100  1
  O  O23  1  0.57119700  0.74976400  0.92971800  1
  O  O24  1  0.58507800  0.25032300  0.91473000  1
  O  O25  1  0.08349200  0.75207700  0.41586400  1
  O  O26  1  0.44364800  0.10828400  0.65087100  1
  O  O27  1  0.94374400  0.60799700  0.15176600  1
  O  O28  1  0.84855600  0.39178300  0.05629600  1
  O  O29  1  0.34866400  0.89158000  0.55608900  1
  O  O30  1  0.00826000  0.06299500  0.22811100  1
  O  O31  1  0.50723200  0.56260200  0.72867100  1
  O  O32  1  0.27151300  0.43744700  0.49277900  1
  O  O33  1  0.77247300  0.93703800  0.99176000  1
  O  O34  1  0.00903300  0.06518100  0.57783200  1
  O  O35  1  0.50814300  0.56551700  0.07766800  1
  O  O36  1  0.92257600  0.43495700  0.49124600  1
  O  O37  1  0.42357100  0.93442100  0.99082300  1
  O  O38  1  0.35131100  0.08825900  0.22935400  1
  O  O39  1  0.85004600  0.58748000  0.73044900  1
  O  O40  1  0.27196100  0.41155700  0.14909200  1
  O  O41  1  0.77045800  0.91344900  0.64752700  1
  O  O42  1  0.57801400  0.29092200  0.57202200  1
  O  O43  1  0.07879300  0.79048700  0.07366400  1
  O  O44  1  0.92784500  0.20897000  0.92185900  1
  O  O45  1  0.42628300  0.70873200  0.42155500  1
  O  O46  1  0.50212000  0.23650800  0.30711600  1
  O  O47  1  0.00333200  0.73695800  0.80848900  1
  O  O48  1  0.19219900  0.26342900  0.99839400  1
  O  O49  1  0.69163900  0.76382700  0.49600900  1
