# generated using pymatgen
data_Ti(CrS2)2
_symmetry_space_group_name_H-M   'P 1'
_cell_length_a   6.62439804
_cell_length_b   6.62439804
_cell_length_c   6.12753948
_cell_angle_alpha   62.48018362
_cell_angle_beta   62.48018362
_cell_angle_gamma   30.17123416
_symmetry_Int_Tables_number   1
_chemical_formula_structural   Ti(CrS2)2
_chemical_formula_sum   'Ti1 Cr2 S4'
_cell_volume   118.66276191
_cell_formula_units_Z   1
loop_
 _symmetry_equiv_pos_site_id
 _symmetry_equiv_pos_as_xyz
  1  'x, y, z'
loop_
 _atom_site_type_symbol
 _atom_site_label
 _atom_site_symmetry_multiplicity
 _atom_site_fract_x
 _atom_site_fract_y
 _atom_site_fract_z
 _atom_site_occupancy
  Ti  Ti0  1  0.00000000  0.00000000  0.00000000  1
  Cr  Cr1  1  0.74176900  0.74176900  0.24518300  1
  Cr  Cr2  1  0.25823100  0.25823100  0.75481700  1
  S  S3  1  0.63363700  0.63363700  0.70295700  1
  S  S4  1  0.36636300  0.36636300  0.29704300  1
  S  S5  1  0.87221500  0.87221500  0.80338900  1
  S  S6  1  0.12778500  0.12778500  0.19661100  1
