# generated using pymatgen
data_Sc6Te2Ru
_symmetry_space_group_name_H-M   'P 1'
_cell_length_a   7.77728665
_cell_length_b   7.77728665
_cell_length_c   3.85004500
_cell_angle_alpha   90.00000000
_cell_angle_beta   90.00000000
_cell_angle_gamma   120.00000554
_symmetry_Int_Tables_number   1
_chemical_formula_structural   Sc6Te2Ru
_chemical_formula_sum   'Sc6 Te2 Ru1'
_cell_volume   201.67526003
_cell_formula_units_Z   1
loop_
 _symmetry_equiv_pos_site_id
 _symmetry_equiv_pos_as_xyz
  1  'x, y, z'
loop_
 _atom_site_type_symbol
 _atom_site_label
 _atom_site_symmetry_multiplicity
 _atom_site_fract_x
 _atom_site_fract_y
 _atom_site_fract_z
 _atom_site_occupancy
  Sc  Sc0  1  0.23936800  0.00000000  0.50000000  1
  Sc  Sc1  1  0.00000000  0.23936800  0.50000000  1
  Sc  Sc2  1  0.76063200  0.76063200  0.50000000  1
  Sc  Sc3  1  0.61644200  0.00000000  0.00000000  1
  Sc  Sc4  1  0.00000000  0.61644200  0.00000000  1
  Sc  Sc5  1  0.38355800  0.38355800  0.00000000  1
  Te  Te6  1  0.33333300  0.66666700  0.50000000  1
  Te  Te7  1  0.66666700  0.33333300  0.50000000  1
  Ru  Ru8  1  0.00000000  0.00000000  0.00000000  1
