# generated using pymatgen
data_K2MnN2
_symmetry_space_group_name_H-M   'P 1'
_cell_length_a   6.05628924
_cell_length_b   5.50414738
_cell_length_c   12.20107820
_cell_angle_alpha   90.00000000
_cell_angle_beta   90.00000000
_cell_angle_gamma   90.00000000
_symmetry_Int_Tables_number   1
_chemical_formula_structural   K2MnN2
_chemical_formula_sum   'K8 Mn4 N8'
_cell_volume   406.71938583
_cell_formula_units_Z   4
loop_
 _symmetry_equiv_pos_site_id
 _symmetry_equiv_pos_as_xyz
  1  'x, y, z'
loop_
 _atom_site_type_symbol
 _atom_site_label
 _atom_site_symmetry_multiplicity
 _atom_site_fract_x
 _atom_site_fract_y
 _atom_site_fract_z
 _atom_site_occupancy
  K  K0  1  0.71233406  0.25000000  0.03292284  1
  K  K1  1  0.21233406  0.25000000  0.46707716  1
  K  K2  1  0.28766594  0.75000000  0.96707716  1
  K  K3  1  0.78766594  0.75000000  0.53292284  1
  K  K4  1  0.10982531  0.25000000  0.82414008  1
  K  K5  1  0.60982531  0.25000000  0.67585992  1
  K  K6  1  0.89017469  0.75000000  0.17585992  1
  K  K7  1  0.39017469  0.75000000  0.32414008  1
  Mn  Mn8  1  0.73219572  0.25000000  0.32153619  1
  Mn  Mn9  1  0.23219572  0.25000000  0.17846381  1
  Mn  Mn10  1  0.26780428  0.75000000  0.67846381  1
  Mn  Mn11  1  0.76780428  0.75000000  0.82153619  1
  N  N12  1  0.72929633  0.25000000  0.45529627  1
  N  N13  1  0.22929633  0.25000000  0.04470373  1
  N  N14  1  0.27070367  0.75000000  0.54470373  1
  N  N15  1  0.77070367  0.75000000  0.95529627  1
  N  N16  1  0.48359383  0.25000000  0.24892729  1
  N  N17  1  0.98359383  0.25000000  0.25107271  1
  N  N18  1  0.51640617  0.75000000  0.75107271  1
  N  N19  1  0.01640617  0.75000000  0.74892729  1
