# generated using pymatgen
data_Tb2Si5Rh3
_symmetry_space_group_name_H-M   'P 1'
_cell_length_a   8.12734807
_cell_length_b   8.12734807
_cell_length_c   5.71636730
_cell_angle_alpha   71.03028081
_cell_angle_beta   71.03028081
_cell_angle_gamma   93.46721651
_symmetry_Int_Tables_number   1
_chemical_formula_structural   Tb2Si5Rh3
_chemical_formula_sum   'Tb4 Si10 Rh6'
_cell_volume   331.80965586
_cell_formula_units_Z   2
loop_
 _symmetry_equiv_pos_site_id
 _symmetry_equiv_pos_as_xyz
  1  'x, y, z'
loop_
 _atom_site_type_symbol
 _atom_site_label
 _atom_site_symmetry_multiplicity
 _atom_site_fract_x
 _atom_site_fract_y
 _atom_site_fract_z
 _atom_site_occupancy
  Tb  Tb0  1  0.86724800  0.59907200  0.76024700  1
  Tb  Tb1  1  0.40092800  0.13275200  0.73975300  1
  Tb  Tb2  1  0.13275200  0.40092800  0.23975300  1
  Tb  Tb3  1  0.59907200  0.86724800  0.26024700  1
  Si  Si4  1  0.05796700  0.26624500  0.83859900  1
  Si  Si5  1  0.73375500  0.94203300  0.66140100  1
  Si  Si6  1  0.94203300  0.73375500  0.16140100  1
  Si  Si7  1  0.26624500  0.05796700  0.33859900  1
  Si  Si8  1  0.51242600  0.48757400  0.75000000  1
  Si  Si9  1  0.48757400  0.51242600  0.25000000  1
  Si  Si10  1  0.77600200  0.22399800  0.75000000  1
  Si  Si11  1  0.78958600  0.21041400  0.25000000  1
  Si  Si12  1  0.21041400  0.78958600  0.75000000  1
  Si  Si13  1  0.22399800  0.77600200  0.25000000  1
  Rh  Rh14  1  0.99799800  0.00200200  0.25000000  1
  Rh  Rh15  1  0.46042000  0.73901500  0.87366500  1
  Rh  Rh16  1  0.73901500  0.46042000  0.37366500  1
  Rh  Rh17  1  0.53958000  0.26098500  0.12633500  1
  Rh  Rh18  1  0.00200200  0.99799800  0.75000000  1
  Rh  Rh19  1  0.26098500  0.53958000  0.62633500  1
