# generated using pymatgen
data_PuB4Os
_symmetry_space_group_name_H-M   'P 1'
_cell_length_a   6.00033231
_cell_length_b   6.00033231
_cell_length_c   3.53845100
_cell_angle_alpha   90.00000000
_cell_angle_beta   90.00000000
_cell_angle_gamma   104.05174358
_symmetry_Int_Tables_number   1
_chemical_formula_structural   PuB4Os
_chemical_formula_sum   'Pu2 B8 Os2'
_cell_volume   123.58618716
_cell_formula_units_Z   2
loop_
 _symmetry_equiv_pos_site_id
 _symmetry_equiv_pos_as_xyz
  1  'x, y, z'
loop_
 _atom_site_type_symbol
 _atom_site_label
 _atom_site_symmetry_multiplicity
 _atom_site_fract_x
 _atom_site_fract_y
 _atom_site_fract_z
 _atom_site_occupancy
  Pu  Pu0  1  0.30046600  0.69953400  0.00000000  1
  Pu  Pu1  1  0.69953400  0.30046600  0.00000000  1
  B  B2  1  0.38087400  0.06375500  0.50000000  1
  B  B3  1  0.61912600  0.93624500  0.50000000  1
  B  B4  1  0.06375500  0.38087400  0.50000000  1
  B  B5  1  0.93624500  0.61912600  0.50000000  1
  B  B6  1  0.37700000  0.37700000  0.50000000  1
  B  B7  1  0.62300000  0.62300000  0.50000000  1
  B  B8  1  0.09272400  0.90727600  0.50000000  1
  B  B9  1  0.90727600  0.09272400  0.50000000  1
  Os  Os10  1  0.18452800  0.18452800  0.00000000  1
  Os  Os11  1  0.81547200  0.81547200  0.00000000  1
