# generated using pymatgen
data_Sr2V3Bi3O14
_symmetry_space_group_name_H-M   'P 1'
_cell_length_a   7.26921984
_cell_length_b   7.21881247
_cell_length_c   14.40871842
_cell_angle_alpha   96.52423068
_cell_angle_beta   100.94520009
_cell_angle_gamma   110.71323937
_symmetry_Int_Tables_number   1
_chemical_formula_structural   Sr2V3Bi3O14
_chemical_formula_sum   'Sr4 V6 Bi6 O28'
_cell_volume   680.77547262
_cell_formula_units_Z   2
loop_
 _symmetry_equiv_pos_site_id
 _symmetry_equiv_pos_as_xyz
  1  'x, y, z'
loop_
 _atom_site_type_symbol
 _atom_site_label
 _atom_site_symmetry_multiplicity
 _atom_site_fract_x
 _atom_site_fract_y
 _atom_site_fract_z
 _atom_site_occupancy
  Sr  Sr0  1  0.14949936  0.71797628  0.93318279  1
  Sr  Sr1  1  0.85050064  0.28202372  0.06681721  1
  Sr  Sr2  1  0.08516645  0.75970267  0.44159831  1
  Sr  Sr3  1  0.91483355  0.24029733  0.55840169  1
  V  V4  1  0.64637266  0.70355070  0.92397462  1
  V  V5  1  0.35362734  0.29644930  0.07602538  1
  V  V6  1  0.60561973  0.76648904  0.42883447  1
  V  V7  1  0.39438027  0.23351096  0.57116553  1
  V  V8  1  0.83997875  0.23868514  0.80089743  1
  V  V9  1  0.16002125  0.76131486  0.19910257  1
  Bi  Bi10  1  0.37522657  0.77360256  0.69829675  1
  Bi  Bi11  1  0.62477343  0.22639744  0.30170325  1
  Bi  Bi12  1  0.86570861  0.70956188  0.67251296  1
  Bi  Bi13  1  0.13429139  0.29043812  0.32748704  1
  Bi  Bi14  1  0.66407526  0.78127549  0.16931295  1
  Bi  Bi15  1  0.33592474  0.21872451  0.83068705  1
  O  O16  1  0.83190618  0.80217863  0.86710320  1
  O  O17  1  0.16809382  0.19782137  0.13289680  1
  O  O18  1  0.66596349  0.64411786  0.33561972  1
  O  O19  1  0.33403651  0.35588214  0.66438028  1
  O  O20  1  0.81613065  0.11866134  0.22920945  1
  O  O21  1  0.18386935  0.88133866  0.77079055  1
  O  O22  1  0.36063673  0.53463874  0.05955089  1
  O  O23  1  0.63936327  0.46536126  0.94044911  1
  O  O24  1  0.42122083  0.89208797  0.19549327  1
  O  O25  1  0.57877917  0.10791203  0.80450673  1
  O  O26  1  0.81856438  0.83909167  0.52929578  1
  O  O27  1  0.18143562  0.16090833  0.47070422  1
  O  O28  1  0.59261035  0.34964839  0.15330374  1
  O  O29  1  0.40738965  0.65035161  0.84669626  1
  O  O30  1  0.92953333  0.38005965  0.39695384  1
  O  O31  1  0.07046667  0.61994035  0.60304616  1
  O  O32  1  0.60549538  0.99990847  0.40638456  1
  O  O33  1  0.39450462  0.00009153  0.59361544  1
  O  O34  1  0.00155089  0.68598510  0.08523808  1
  O  O35  1  0.99844911  0.31401490  0.91476192  1
  O  O36  1  0.67839585  0.88436772  0.02906742  1
  O  O37  1  0.32160415  0.11563228  0.97093258  1
  O  O38  1  0.37214826  0.61798371  0.44642338  1
  O  O39  1  0.62785174  0.38201629  0.55357662  1
  O  O40  1  0.08660455  0.90668791  0.27719636  1
  O  O41  1  0.91339545  0.09331209  0.72280364  1
  O  O42  1  0.12133195  0.54014064  0.24196282  1
  O  O43  1  0.87866805  0.45985936  0.75803718  1
