# generated using pymatgen
data_Fe2Ni(PO4)2
_symmetry_space_group_name_H-M   'P 1'
_cell_length_a   4.85753900
_cell_length_b   6.02283100
_cell_length_c   10.40891301
_cell_angle_alpha   89.31725068
_cell_angle_beta   90.00000000
_cell_angle_gamma   90.00000000
_symmetry_Int_Tables_number   1
_chemical_formula_structural   Fe2Ni(PO4)2
_chemical_formula_sum   'Fe4 Ni2 P4 O16'
_cell_volume   304.50295898
_cell_formula_units_Z   2
loop_
 _symmetry_equiv_pos_site_id
 _symmetry_equiv_pos_as_xyz
  1  'x, y, z'
loop_
 _atom_site_type_symbol
 _atom_site_label
 _atom_site_symmetry_multiplicity
 _atom_site_fract_x
 _atom_site_fract_y
 _atom_site_fract_z
 _atom_site_occupancy
  Fe  Fe0  1  0.01844800  0.23705200  0.46938300  1
  Fe  Fe1  1  0.51844800  0.76294800  0.53061700  1
  Fe  Fe2  1  0.00035000  0.50043900  0.75283000  1
  Fe  Fe3  1  0.50035000  0.49956100  0.24717000  1
  Ni  Ni4  1  0.98986300  0.76333400  0.02720300  1
  Ni  Ni5  1  0.48986300  0.23666600  0.97279700  1
  P  P6  1  0.42916800  0.74343000  0.85306700  1
  P  P7  1  0.92916800  0.25657000  0.14693300  1
  P  P8  1  0.56973100  0.25942200  0.65392200  1
  P  P9  1  0.06973100  0.74057800  0.34607800  1
  O  O10  1  0.74661700  0.72708700  0.85839700  1
  O  O11  1  0.24661700  0.27291300  0.14160300  1
  O  O12  1  0.25349300  0.27758300  0.64758100  1
  O  O13  1  0.75349300  0.72241700  0.35241900  1
  O  O14  1  0.31268300  0.93787500  0.93262400  1
  O  O15  1  0.81268300  0.06212500  0.06737600  1
  O  O16  1  0.68321600  0.06731900  0.57208000  1
  O  O17  1  0.18321600  0.93268100  0.42792000  1
  O  O18  1  0.27886100  0.53219900  0.91584300  1
  O  O19  1  0.77886100  0.46780100  0.08415700  1
  O  O20  1  0.71841600  0.46997800  0.59083200  1
  O  O21  1  0.21841600  0.53002200  0.40916800  1
  O  O22  1  0.17963400  0.74740000  0.20604500  1
  O  O23  1  0.67963400  0.25260000  0.79395500  1
  O  O24  1  0.81952100  0.25233700  0.28703100  1
  O  O25  1  0.31952100  0.74766300  0.71296900  1
