# generated using pymatgen
data_Gd2Fe12P7
_symmetry_space_group_name_H-M   'P 1'
_cell_length_a   3.64515000
_cell_length_b   8.99488974
_cell_length_c   8.99450982
_cell_angle_alpha   119.98542689
_cell_angle_beta   90.00000000
_cell_angle_gamma   90.00000000
_symmetry_Int_Tables_number   1
_chemical_formula_structural   Gd2Fe12P7
_chemical_formula_sum   'Gd2 Fe12 P7'
_cell_volume   255.43660752
_cell_formula_units_Z   1
loop_
 _symmetry_equiv_pos_site_id
 _symmetry_equiv_pos_as_xyz
  1  'x, y, z'
loop_
 _atom_site_type_symbol
 _atom_site_label
 _atom_site_symmetry_multiplicity
 _atom_site_fract_x
 _atom_site_fract_y
 _atom_site_fract_z
 _atom_site_occupancy
  Gd  Gd0  1  0.00000000  0.66662900  0.33331900  1
  Gd  Gd1  1  0.50000000  0.33338800  0.66662700  1
  Fe  Fe2  1  0.00000000  0.37216000  0.94468000  1
  Fe  Fe3  1  0.00000000  0.05540200  0.42738700  1
  Fe  Fe4  1  0.00000000  0.57257500  0.62804800  1
  Fe  Fe5  1  0.00000000  0.87988100  0.72632100  1
  Fe  Fe6  1  0.00000000  0.27378300  0.15369300  1
  Fe  Fe7  1  0.00000000  0.84634900  0.12014600  1
  Fe  Fe8  1  0.50000000  0.95061400  0.56816200  1
  Fe  Fe9  1  0.50000000  0.43181500  0.38237100  1
  Fe  Fe10  1  0.50000000  0.61756500  0.04933800  1
  Fe  Fe11  1  0.50000000  0.12091700  0.90218400  1
  Fe  Fe12  1  0.50000000  0.09777500  0.21874700  1
  Fe  Fe13  1  0.50000000  0.78123700  0.87899800  1
  P  P14  1  0.00000000  0.11188600  0.70336200  1
  P  P15  1  0.00000000  0.29644800  0.40840900  1
  P  P16  1  0.00000000  0.59140900  0.88794000  1
  P  P17  1  0.50000000  0.70966900  0.59978300  1
  P  P18  1  0.50000000  0.40029100  0.10981600  1
  P  P19  1  0.50000000  0.89028000  0.29063000  1
  P  P20  1  0.00000000  0.99992500  0.00003900  1
