# generated using pymatgen
data_Bi(PdO2)2
_symmetry_space_group_name_H-M   'P 1'
_cell_length_a   5.78916845
_cell_length_b   6.17570506
_cell_length_c   6.51858492
_cell_angle_alpha   114.88916428
_cell_angle_beta   95.76741103
_cell_angle_gamma   111.71153516
_symmetry_Int_Tables_number   1
_chemical_formula_structural   Bi(PdO2)2
_chemical_formula_sum   'Bi2 Pd4 O8'
_cell_volume   187.11658043
_cell_formula_units_Z   2
loop_
 _symmetry_equiv_pos_site_id
 _symmetry_equiv_pos_as_xyz
  1  'x, y, z'
loop_
 _atom_site_type_symbol
 _atom_site_label
 _atom_site_symmetry_multiplicity
 _atom_site_fract_x
 _atom_site_fract_y
 _atom_site_fract_z
 _atom_site_occupancy
  Bi  Bi0  1  0.85914872  0.23997086  0.64936384  1
  Bi  Bi1  1  0.14085128  0.76002914  0.35063616  1
  Pd  Pd2  1  -0.00000000  -0.00000000  -0.00000000  1
  Pd  Pd3  1  0.50000000  0.50000000  -0.00000000  1
  Pd  Pd4  1  0.50000000  0.50000000  0.50000000  1
  Pd  Pd5  1  0.50000000  -0.00000000  -0.00000000  1
  O  O6  1  0.64435424  0.39616953  0.22831884  1
  O  O7  1  0.35564576  0.60383047  0.77168116  1
  O  O8  1  0.83824353  0.86015020  0.64564071  1
  O  O9  1  0.16175647  0.13984980  0.35435929  1
  O  O10  1  0.51901896  0.87362375  0.24667645  1
  O  O11  1  0.48098104  0.12637625  0.75332355  1
  O  O12  1  0.87672262  0.64548765  0.98891009  1
  O  O13  1  0.12327738  0.35451235  0.01108991  1
