# generated using pymatgen
data_K3NaCr2O8
_symmetry_space_group_name_H-M   'P 1'
_cell_length_a   5.95651926
_cell_length_b   5.95651926
_cell_length_c   15.29991012
_cell_angle_alpha   89.91259055
_cell_angle_beta   89.91259054
_cell_angle_gamma   59.85367249
_symmetry_Int_Tables_number   1
_chemical_formula_structural   K3NaCr2O8
_chemical_formula_sum   'K6 Na2 Cr4 O16'
_cell_volume   469.42010312
_cell_formula_units_Z   2
loop_
 _symmetry_equiv_pos_site_id
 _symmetry_equiv_pos_as_xyz
  1  'x, y, z'
loop_
 _atom_site_type_symbol
 _atom_site_label
 _atom_site_symmetry_multiplicity
 _atom_site_fract_x
 _atom_site_fract_y
 _atom_site_fract_z
 _atom_site_occupancy
  O  O0  1  0.15305442  0.22025816  0.40655996  1
  O  O1  1  0.77974101  0.84694513  0.09343956  1
  O  O2  1  0.84694544  0.77974168  0.59343986  1
  O  O3  1  0.22025884  0.15305471  0.90656026  1
  O  O4  1  0.15381498  0.67403309  0.38332304  1
  O  O5  1  0.32596665  0.84618458  0.11667713  1
  O  O6  1  0.84618488  0.32596676  0.61667743  1
  O  O7  1  0.67403321  0.15381526  0.88332268  1
  O  O8  1  0.60435065  0.22628491  0.41891430  1
  O  O9  1  0.77371572  0.39564888  0.08108587  1
  O  O10  1  0.39564921  0.77371493  0.58108552  1
  O  O11  1  0.22628582  0.60435095  0.91891459  1
  O  O12  1  0.28697029  0.37776289  0.76090440  1
  O  O13  1  0.62223828  0.71302865  0.73909571  1
  O  O14  1  0.37776158  0.28697119  0.26090476  1
  O  O15  1  0.71302956  0.62223695  0.23909541  1
  Na  Na16  1  0.00000114  0.99999907  0.50000030  1
  Na  Na17  1  0.00000000  0.00000000  0.00000000  1
  K  K18  1  0.05445594  0.94554357  0.75000006  1
  K  K19  1  0.94554392  0.05445627  0.24999976  1
  K  K20  1  0.31019390  0.34901968  0.08916369  1
  K  K21  1  0.65097983  0.68980611  0.41083649  1
  K  K22  1  0.34901905  0.31019567  0.58916398  1
  K  K23  1  0.68980596  0.65098017  0.91083613  1
  Cr  Cr24  1  0.32032823  0.35370199  0.36589823  1
  Cr  Cr25  1  0.64629781  0.67967104  0.13410195  1
  Cr  Cr26  1  0.67967163  0.64629786  0.63410159  1
  Cr  Cr27  1  0.35370205  0.32032881  0.86589852  1
