# generated using pymatgen
data_Cs2CrH8Cl5O4
_symmetry_space_group_name_H-M   'P 1'
_cell_length_a   10.31835814
_cell_length_b   10.31835814
_cell_length_c   14.36184565
_cell_angle_alpha   62.88895913
_cell_angle_beta   62.88895913
_cell_angle_gamma   35.21552147
_symmetry_Int_Tables_number   1
_chemical_formula_structural   Cs2CrH8Cl5O4
_chemical_formula_sum   'Cs4 Cr2 H16 Cl10 O8'
_cell_volume   774.43979952
_cell_formula_units_Z   2
loop_
 _symmetry_equiv_pos_site_id
 _symmetry_equiv_pos_as_xyz
  1  'x, y, z'
loop_
 _atom_site_type_symbol
 _atom_site_label
 _atom_site_symmetry_multiplicity
 _atom_site_fract_x
 _atom_site_fract_y
 _atom_site_fract_z
 _atom_site_occupancy
  Cs  Cs0  1  0.68686800  0.71417400  0.67324200  1
  Cs  Cs1  1  0.31313200  0.28582600  0.32675800  1
  Cs  Cs2  1  0.28582600  0.31313200  0.82675800  1
  Cs  Cs3  1  0.71417400  0.68686800  0.17324200  1
  Cr  Cr4  1  0.00000000  0.00000000  0.50000000  1
  Cr  Cr5  1  0.00000000  0.00000000  0.00000000  1
  H  H6  1  0.40500300  0.79116800  0.49962600  1
  H  H7  1  0.59499700  0.20883200  0.50037400  1
  H  H8  1  0.20883200  0.59499700  0.00037400  1
  H  H9  1  0.79116800  0.40500300  0.99962600  1
  H  H10  1  0.60125500  0.19775200  0.99882800  1
  H  H11  1  0.39874500  0.80224800  0.00117200  1
  H  H12  1  0.80224800  0.39874500  0.50117200  1
  H  H13  1  0.19775200  0.60125500  0.49882800  1
  H  H14  1  0.69806100  0.24554100  0.87928300  1
  H  H15  1  0.30193900  0.75445900  0.12071700  1
  H  H16  1  0.75445900  0.30193900  0.62071700  1
  H  H17  1  0.24554100  0.69806100  0.37928300  1
  H  H18  1  0.32391700  0.72515000  0.61605100  1
  H  H19  1  0.67608300  0.27485000  0.38394900  1
  H  H20  1  0.27485000  0.67608300  0.88394900  1
  H  H21  1  0.72515000  0.32391700  0.11605100  1
  Cl  Cl22  1  0.89009900  0.89501900  0.66994600  1
  Cl  Cl23  1  0.10990100  0.10498100  0.33005400  1
  Cl  Cl24  1  0.10498100  0.10990100  0.83005400  1
  Cl  Cl25  1  0.89501900  0.89009900  0.16994600  1
  Cl  Cl26  1  0.68120200  0.70774200  0.92853600  1
  Cl  Cl27  1  0.31879800  0.29225800  0.07146400  1
  Cl  Cl28  1  0.29225800  0.31879800  0.57146400  1
  Cl  Cl29  1  0.70774200  0.68120200  0.42853600  1
  Cl  Cl30  1  0.51419700  0.48580300  0.75000000  1
  Cl  Cl31  1  0.48580300  0.51419700  0.25000000  1
  O  O32  1  0.71725900  0.18832700  0.95484300  1
  O  O33  1  0.28274100  0.81167300  0.04515700  1
  O  O34  1  0.81167300  0.28274100  0.54515700  1
  O  O35  1  0.18832700  0.71725900  0.45484300  1
  O  O36  1  0.27019100  0.83738900  0.54986200  1
  O  O37  1  0.72980900  0.16261100  0.45013800  1
  O  O38  1  0.16261100  0.72980900  0.95013800  1
  O  O39  1  0.83738900  0.27019100  0.04986200  1
