# generated using pymatgen
data_Ce2Nb2S7O30
_symmetry_space_group_name_H-M   'P 1'
_cell_length_a   12.92405800
_cell_length_b   12.92405800
_cell_length_c   7.20443400
_cell_angle_alpha   90.00000000
_cell_angle_beta   90.00000000
_cell_angle_gamma   90.00000000
_symmetry_Int_Tables_number   1
_chemical_formula_structural   Ce2Nb2S7O30
_chemical_formula_sum   'Ce4 Nb4 S14 O60'
_cell_volume   1203.36579802
_cell_formula_units_Z   2
loop_
 _symmetry_equiv_pos_site_id
 _symmetry_equiv_pos_as_xyz
  1  'x, y, z'
loop_
 _atom_site_type_symbol
 _atom_site_label
 _atom_site_symmetry_multiplicity
 _atom_site_fract_x
 _atom_site_fract_y
 _atom_site_fract_z
 _atom_site_occupancy
  Ce  Ce0  1  0.79818100  0.70181900  0.58981600  1
  Ce  Ce1  1  0.70181900  0.20181900  0.41018400  1
  Ce  Ce2  1  0.20181900  0.29818100  0.58981600  1
  Ce  Ce3  1  0.29818100  0.79818100  0.41018400  1
  Nb  Nb4  1  0.63914600  0.86085400  0.98224100  1
  Nb  Nb5  1  0.86085400  0.36085400  0.01775900  1
  Nb  Nb6  1  0.36085400  0.13914600  0.98224100  1
  Nb  Nb7  1  0.13914600  0.63914600  0.01775900  1
  S  S8  1  0.50000000  0.00000000  0.34233500  1
  S  S9  1  0.00000000  0.50000000  0.65766500  1
  S  S10  1  0.37711300  0.87711300  0.89525200  1
  S  S11  1  0.12288700  0.37711300  0.10474800  1
  S  S12  1  0.62288700  0.12288700  0.89525200  1
  S  S13  1  0.87711300  0.62288700  0.10474800  1
  S  S14  1  0.56611700  0.67389100  0.29336700  1
  S  S15  1  0.93388300  0.17389100  0.70663300  1
  S  S16  1  0.43388300  0.32610900  0.29336700  1
  S  S17  1  0.06611700  0.82610900  0.70663300  1
  S  S18  1  0.67389100  0.43388300  0.70663300  1
  S  S19  1  0.82610900  0.93388300  0.29336700  1
  S  S20  1  0.32610900  0.56611700  0.70663300  1
  S  S21  1  0.17389100  0.06611700  0.29336700  1
  O  O22  1  0.70121300  0.79878700  0.78531200  1
  O  O23  1  0.79878700  0.29878700  0.21468800  1
  O  O24  1  0.29878700  0.20121300  0.78531200  1
  O  O25  1  0.20121300  0.70121300  0.21468800  1
  O  O26  1  0.56685000  0.06685000  0.45903200  1
  O  O27  1  0.93315000  0.56685000  0.54096800  1
  O  O28  1  0.43315000  0.93315000  0.45903200  1
  O  O29  1  0.06685000  0.43315000  0.54096800  1
  O  O30  1  0.56604400  0.93395600  0.22284200  1
  O  O31  1  0.93395600  0.43395600  0.77715800  1
  O  O32  1  0.43395600  0.06604400  0.22284200  1
  O  O33  1  0.06604400  0.56604400  0.77715800  1
  O  O34  1  0.34195500  0.84195500  0.07634500  1
  O  O35  1  0.15804500  0.34195500  0.92365500  1
  O  O36  1  0.65804500  0.15804500  0.07634500  1
  O  O37  1  0.84195500  0.65804500  0.92365500  1
  O  O38  1  0.32462900  0.82462900  0.74113600  1
  O  O39  1  0.17537100  0.32462900  0.25886400  1
  O  O40  1  0.67537100  0.17537100  0.74113600  1
  O  O41  1  0.82462900  0.67537100  0.25886400  1
  O  O42  1  0.49101300  0.85825300  0.87337900  1
  O  O43  1  0.00898700  0.35825300  0.12662100  1
  O  O44  1  0.50898700  0.14174700  0.87337900  1
  O  O45  1  0.99101300  0.64174700  0.12662100  1
  O  O46  1  0.85825300  0.50898700  0.12662100  1
  O  O47  1  0.64174700  0.00898700  0.87337900  1
  O  O48  1  0.14174700  0.49101300  0.12662100  1
  O  O49  1  0.35825300  0.99101300  0.87337900  1
  O  O50  1  0.63383700  0.70822400  0.44989300  1
  O  O51  1  0.86616300  0.20822400  0.55010700  1
  O  O52  1  0.36616300  0.29177600  0.44989300  1
  O  O53  1  0.13383700  0.79177600  0.55010700  1
  O  O54  1  0.70822400  0.36616300  0.55010700  1
  O  O55  1  0.79177600  0.86616300  0.44989300  1
  O  O56  1  0.29177600  0.63383700  0.55010700  1
  O  O57  1  0.20822400  0.13383700  0.44989300  1
  O  O58  1  0.45952900  0.71214300  0.32915300  1
  O  O59  1  0.04047100  0.21214300  0.67084700  1
  O  O60  1  0.54047100  0.28785700  0.32915300  1
  O  O61  1  0.95952900  0.78785700  0.67084700  1
  O  O62  1  0.71214300  0.54047100  0.67084700  1
  O  O63  1  0.78785700  0.04047100  0.32915300  1
  O  O64  1  0.28785700  0.45952900  0.67084700  1
  O  O65  1  0.21214300  0.95952900  0.32915300  1
  O  O66  1  0.57598700  0.56705900  0.24786900  1
  O  O67  1  0.92401300  0.06705900  0.75213100  1
  O  O68  1  0.42401300  0.43294100  0.24786900  1
  O  O69  1  0.07598700  0.93294100  0.75213100  1
  O  O70  1  0.56705900  0.42401300  0.75213100  1
  O  O71  1  0.93294100  0.92401300  0.24786900  1
  O  O72  1  0.43294100  0.57598700  0.75213100  1
  O  O73  1  0.06705900  0.07598700  0.24786900  1
  O  O74  1  0.60646300  0.73480800  0.11967200  1
  O  O75  1  0.89353700  0.23480800  0.88032800  1
  O  O76  1  0.39353700  0.26519200  0.11967200  1
  O  O77  1  0.10646300  0.76519200  0.88032800  1
  O  O78  1  0.73480800  0.39353700  0.88032800  1
  O  O79  1  0.76519200  0.89353700  0.11967200  1
  O  O80  1  0.26519200  0.60646300  0.88032800  1
  O  O81  1  0.23480800  0.10646300  0.11967200  1
