# generated using pymatgen
data_YbZr3F15
_symmetry_space_group_name_H-M   'P 1'
_cell_length_a   8.22533271
_cell_length_b   8.22533271
_cell_length_c   8.16654992
_cell_angle_alpha   80.25659883
_cell_angle_beta   80.25659883
_cell_angle_gamma   99.42508042
_symmetry_Int_Tables_number   1
_chemical_formula_structural   YbZr3F15
_chemical_formula_sum   'Yb2 Zr6 F30'
_cell_volume   526.05918088
_cell_formula_units_Z   2
loop_
 _symmetry_equiv_pos_site_id
 _symmetry_equiv_pos_as_xyz
  1  'x, y, z'
loop_
 _atom_site_type_symbol
 _atom_site_label
 _atom_site_symmetry_multiplicity
 _atom_site_fract_x
 _atom_site_fract_y
 _atom_site_fract_z
 _atom_site_occupancy
  Yb  Yb0  1  0.18049900  0.81950100  0.25000000  1
  Yb  Yb1  1  0.81950100  0.18049900  0.75000000  1
  Zr  Zr2  1  0.75146200  0.24853800  0.25000000  1
  Zr  Zr3  1  0.24853800  0.75146200  0.75000000  1
  Zr  Zr4  1  0.74812800  0.68064400  0.67873200  1
  Zr  Zr5  1  0.31935600  0.25187200  0.82126800  1
  Zr  Zr6  1  0.25187200  0.31935600  0.32126800  1
  Zr  Zr7  1  0.68064400  0.74812800  0.17873200  1
  F  F8  1  0.46426500  0.53573500  0.25000000  1
  F  F9  1  0.74559300  0.95427000  0.97381900  1
  F  F10  1  0.04573000  0.25440700  0.52618100  1
  F  F11  1  0.25440700  0.04573000  0.02618100  1
  F  F12  1  0.95427000  0.74559300  0.47381900  1
  F  F13  1  0.53573500  0.46426500  0.75000000  1
  F  F14  1  0.77176400  0.28200400  0.99774800  1
  F  F15  1  0.00779800  0.27389700  0.21945200  1
  F  F16  1  0.77482600  0.50829100  0.22646400  1
  F  F17  1  0.50829100  0.77482600  0.72646400  1
  F  F18  1  0.27389700  0.00779800  0.71945200  1
  F  F19  1  0.28200400  0.77176400  0.49774800  1
  F  F20  1  0.22823600  0.71799600  0.00225200  1
  F  F21  1  0.99220200  0.72610300  0.78054800  1
  F  F22  1  0.22517400  0.49170900  0.77353600  1
  F  F23  1  0.49170900  0.22517400  0.27353600  1
  F  F24  1  0.72610300  0.99220200  0.28054800  1
  F  F25  1  0.71799600  0.22823600  0.50225200  1
  F  F26  1  0.31527300  0.34876100  0.05051000  1
  F  F27  1  0.93549500  0.81430900  0.14879700  1
  F  F28  1  0.84565100  0.46627800  0.68132500  1
  F  F29  1  0.46627800  0.84565100  0.18132500  1
  F  F30  1  0.81430900  0.93549500  0.64879700  1
  F  F31  1  0.34876100  0.31527300  0.55051000  1
  F  F32  1  0.68472700  0.65123900  0.94949000  1
  F  F33  1  0.06450500  0.18569100  0.85120300  1
  F  F34  1  0.15434900  0.53372200  0.31867500  1
  F  F35  1  0.53372200  0.15434900  0.81867500  1
  F  F36  1  0.18569100  0.06450500  0.35120300  1
  F  F37  1  0.65123900  0.68472700  0.44949000  1
