# generated using pymatgen
data_Tm5SbPt2
_symmetry_space_group_name_H-M   'P 1'
_cell_length_a   8.70719567
_cell_length_b   8.70719567
_cell_length_c   8.70719567
_cell_angle_alpha   128.02353443
_cell_angle_beta   128.02353443
_cell_angle_gamma   76.58690639
_symmetry_Int_Tables_number   1
_chemical_formula_structural   Tm5SbPt2
_chemical_formula_sum   'Tm10 Sb2 Pt4'
_cell_volume   397.92212460
_cell_formula_units_Z   2
loop_
 _symmetry_equiv_pos_site_id
 _symmetry_equiv_pos_as_xyz
  1  'x, y, z'
loop_
 _atom_site_type_symbol
 _atom_site_label
 _atom_site_symmetry_multiplicity
 _atom_site_fract_x
 _atom_site_fract_y
 _atom_site_fract_z
 _atom_site_occupancy
  Tm  Tm0  1  0.00000000  0.00000000  0.00000000  1
  Tm  Tm1  1  0.50000000  0.50000000  0.00000000  1
  Tm  Tm2  1  0.79691400  0.29691400  0.81729400  1
  Tm  Tm3  1  0.20308600  0.70308600  0.18270600  1
  Tm  Tm4  1  0.47961900  0.97961900  0.18270600  1
  Tm  Tm5  1  0.29691400  0.47961900  0.50000000  1
  Tm  Tm6  1  0.02038100  0.20308600  0.50000000  1
  Tm  Tm7  1  0.52038100  0.02038100  0.81729400  1
  Tm  Tm8  1  0.70308600  0.52038100  0.50000000  1
  Tm  Tm9  1  0.97961900  0.79691400  0.50000000  1
  Sb  Sb10  1  0.25000000  0.25000000  0.00000000  1
  Sb  Sb11  1  0.75000000  0.75000000  0.00000000  1
  Pt  Pt12  1  0.13814300  0.63814300  0.77628700  1
  Pt  Pt13  1  0.86185700  0.36185700  0.22371300  1
  Pt  Pt14  1  0.63814300  0.86185700  0.50000000  1
  Pt  Pt15  1  0.36185700  0.13814300  0.50000000  1
