# generated using pymatgen
data_K2Mg5Cu3(AsO4)6
_symmetry_space_group_name_H-M   'P 1'
_cell_length_a   6.90665562
_cell_length_b   8.90431573
_cell_length_c   8.93665415
_cell_angle_alpha   92.44998743
_cell_angle_beta   105.86495479
_cell_angle_gamma   106.11836757
_symmetry_Int_Tables_number   1
_chemical_formula_structural   K2Mg5Cu3(AsO4)6
_chemical_formula_sum   'K2 Mg5 Cu3 As6 O24'
_cell_volume   503.67621821
_cell_formula_units_Z   1
loop_
 _symmetry_equiv_pos_site_id
 _symmetry_equiv_pos_as_xyz
  1  'x, y, z'
loop_
 _atom_site_type_symbol
 _atom_site_label
 _atom_site_symmetry_multiplicity
 _atom_site_fract_x
 _atom_site_fract_y
 _atom_site_fract_z
 _atom_site_occupancy
  K  K0  1  0.25004400  0.98593500  0.01486800  1
  K  K1  1  0.75145200  0.01775800  0.98457100  1
  Mg  Mg2  1  0.24933900  0.25700400  0.74407600  1
  Mg  Mg3  1  0.74965700  0.74192700  0.25758100  1
  Mg  Mg4  1  0.36790700  0.93945500  0.62296400  1
  Mg  Mg5  1  0.86572300  0.62066900  0.93852900  1
  Mg  Mg6  1  0.63297700  0.06219500  0.37782000  1
  Cu  Cu7  1  0.24983800  0.50347400  0.49827600  1
  Cu  Cu8  1  0.74921300  0.49721900  0.50218700  1
  Cu  Cu9  1  0.14510600  0.38423000  0.06881100  1
  As  As10  1  0.37242900  0.64588700  0.87857500  1
  As  As11  1  0.12963100  0.12413200  0.35192800  1
  As  As12  1  0.62798000  0.35215500  0.12205200  1
  As  As13  1  0.87070400  0.87768400  0.64799600  1
  As  As14  1  0.75062400  0.28467700  0.71586500  1
  As  As15  1  0.24911500  0.71576100  0.28351400  1
  O  O16  1  0.38290500  0.32756000  0.98825700  1
  O  O17  1  0.11767100  0.00866100  0.66987600  1
  O  O18  1  0.61781000  0.67093900  0.00953400  1
  O  O19  1  0.88338700  0.99177600  0.32887900  1
  O  O20  1  0.23626900  0.51419200  0.27740500  1
  O  O21  1  0.26114400  0.72325600  0.48222600  1
  O  O22  1  0.76107700  0.48377500  0.72418700  1
  O  O23  1  0.73871500  0.27583600  0.51681200  1
  O  O24  1  0.18655300  0.27718200  0.50030700  1
  O  O25  1  0.31404100  0.49897400  0.72448300  1
  O  O26  1  0.81425200  0.72446300  0.49930000  1
  O  O27  1  0.68554200  0.50055700  0.27613800  1
  O  O28  1  0.81648000  0.40737800  0.02712400  1
  O  O29  1  0.67834500  0.97004600  0.59328400  1
  O  O30  1  0.17858400  0.59000100  0.97364400  1
  O  O31  1  0.31934700  0.02916500  0.40482700  1
  O  O32  1  0.97603600  0.24841400  0.82403300  1
  O  O33  1  0.52227700  0.17262600  0.74832500  1
  O  O34  1  0.02346000  0.74943100  0.17281700  1
  O  O35  1  0.47663600  0.82642700  0.25036100  1
  O  O36  1  0.62467500  0.17542300  0.18652400  1
  O  O37  1  0.87492200  0.81387800  0.82431100  1
  O  O38  1  0.37241700  0.82229700  0.81495300  1
  O  O39  1  0.12571400  0.18758100  0.17278000  1
