# generated using pymatgen
data_Sm2Fe12P7
_symmetry_space_group_name_H-M   'P 1'
_cell_length_a   3.65907600
_cell_length_b   9.03084931
_cell_length_c   9.03055062
_cell_angle_alpha   120.08374829
_cell_angle_beta   90.00000000
_cell_angle_gamma   90.00000000
_symmetry_Int_Tables_number   1
_chemical_formula_structural   Sm2Fe12P7
_chemical_formula_sum   'Sm2 Fe12 P7'
_cell_volume   258.21280008
_cell_formula_units_Z   1
loop_
 _symmetry_equiv_pos_site_id
 _symmetry_equiv_pos_as_xyz
  1  'x, y, z'
loop_
 _atom_site_type_symbol
 _atom_site_label
 _atom_site_symmetry_multiplicity
 _atom_site_fract_x
 _atom_site_fract_y
 _atom_site_fract_z
 _atom_site_occupancy
  Sm  Sm0  1  0.00000000  0.66735100  0.33361100  1
  Sm  Sm1  1  0.50000000  0.33301400  0.66650600  1
  Fe  Fe2  1  0.00000000  0.37260700  0.94555300  1
  Fe  Fe3  1  0.00000000  0.05453900  0.42675400  1
  Fe  Fe4  1  0.00000000  0.57264300  0.62698000  1
  Fe  Fe5  1  0.00000000  0.87996500  0.72666700  1
  Fe  Fe6  1  0.00000000  0.27399400  0.15387900  1
  Fe  Fe7  1  0.00000000  0.84598300  0.11963700  1
  Fe  Fe8  1  0.50000000  0.95224700  0.56947600  1
  Fe  Fe9  1  0.50000000  0.43057000  0.38303800  1
  Fe  Fe10  1  0.50000000  0.61742200  0.04779000  1
  Fe  Fe11  1  0.50000000  0.12017300  0.90242200  1
  Fe  Fe12  1  0.50000000  0.09746800  0.21749400  1
  Fe  Fe13  1  0.50000000  0.78239800  0.87998700  1
  P  P14  1  0.00000000  0.11059200  0.70386100  1
  P  P15  1  0.00000000  0.29476600  0.40650000  1
  P  P16  1  0.00000000  0.59273800  0.88855400  1
  P  P17  1  0.50000000  0.71157400  0.60279000  1
  P  P18  1  0.50000000  0.39780500  0.10832500  1
  P  P19  1  0.50000000  0.89209300  0.29004700  1
  P  P20  1  0.00000000  0.00005700  0.00013000  1
