# generated using pymatgen
data_YUCo10
_symmetry_space_group_name_H-M   'P 1'
_cell_length_a   3.98826200
_cell_length_b   4.84197718
_cell_length_c   8.35828016
_cell_angle_alpha   89.99999372
_cell_angle_beta   90.00000000
_cell_angle_gamma   90.00000000
_symmetry_Int_Tables_number   1
_chemical_formula_structural   YUCo10
_chemical_formula_sum   'Y1 U1 Co10'
_cell_volume   161.40736316
_cell_formula_units_Z   1
loop_
 _symmetry_equiv_pos_site_id
 _symmetry_equiv_pos_as_xyz
  1  'x, y, z'
loop_
 _atom_site_type_symbol
 _atom_site_label
 _atom_site_symmetry_multiplicity
 _atom_site_fract_x
 _atom_site_fract_y
 _atom_site_fract_z
 _atom_site_occupancy
  Y  Y0  1  0.00000000  0.50006400  0.50000000  1
  U  U1  1  0.00000000  0.99973000  0.00000000  1
  Co  Co2  1  0.00000000  0.99995600  0.31524000  1
  Co  Co3  1  0.00000000  0.50004100  0.84600400  1
  Co  Co4  1  0.00000000  0.50004100  0.15399600  1
  Co  Co5  1  0.00000000  0.99995600  0.68476000  1
  Co  Co6  1  0.50000000  0.50010900  0.00000000  1
  Co  Co7  1  0.50000000  0.99996500  0.50000000  1
  Co  Co8  1  0.50000000  0.25327900  0.25038500  1
  Co  Co9  1  0.50000000  0.74669000  0.74959800  1
  Co  Co10  1  0.50000000  0.74669000  0.25040200  1
  Co  Co11  1  0.50000000  0.25327900  0.74961500  1
