# generated using pymatgen
data_CsCoO2
_symmetry_space_group_name_H-M   'P 1'
_cell_length_a   6.01913263
_cell_length_b   6.01908808
_cell_length_c   6.01905273
_cell_angle_alpha   119.99940931
_cell_angle_beta   59.99994171
_cell_angle_gamma   90.00000673
_symmetry_Int_Tables_number   1
_chemical_formula_structural   CsCoO2
_chemical_formula_sum   'Cs2 Co2 O4'
_cell_volume   154.19890232
_cell_formula_units_Z   2
loop_
 _symmetry_equiv_pos_site_id
 _symmetry_equiv_pos_as_xyz
  1  'x, y, z'
loop_
 _atom_site_type_symbol
 _atom_site_label
 _atom_site_symmetry_multiplicity
 _atom_site_fract_x
 _atom_site_fract_y
 _atom_site_fract_z
 _atom_site_occupancy
  Cs  Cs0  1  0.50000000  0.50000000  0.99999900  1
  Cs  Cs1  1  0.25000000  0.25000000  0.50000100  1
  Co  Co2  1  0.74999800  0.74999900  0.50000200  1
  Co  Co3  1  0.00000300  0.00000100  0.99999700  1
  O  O4  1  0.87191700  0.38424800  0.25616500  1
  O  O5  1  0.87191700  0.87191800  0.25616500  1
  O  O6  1  0.87191700  0.87191800  0.74383500  1
  O  O7  1  0.38424800  0.87191700  0.74383500  1
