# generated using pymatgen
data_Np2Se5
_symmetry_space_group_name_H-M   'P 1'
_cell_length_a   5.45313400
_cell_length_b   5.45313400
_cell_length_c   10.72611900
_cell_angle_alpha   90.00000000
_cell_angle_beta   90.00000000
_cell_angle_gamma   90.00000000
_symmetry_Int_Tables_number   1
_chemical_formula_structural   Np2Se5
_chemical_formula_sum   'Np4 Se10'
_cell_volume   318.95906561
_cell_formula_units_Z   2
loop_
 _symmetry_equiv_pos_site_id
 _symmetry_equiv_pos_as_xyz
  1  'x, y, z'
loop_
 _atom_site_type_symbol
 _atom_site_label
 _atom_site_symmetry_multiplicity
 _atom_site_fract_x
 _atom_site_fract_y
 _atom_site_fract_z
 _atom_site_occupancy
  Np  Np0  1  0.00000000  0.50000000  0.90106600  1
  Np  Np1  1  0.00000000  0.50000000  0.40106600  1
  Np  Np2  1  0.50000000  0.00000000  0.59893400  1
  Np  Np3  1  0.50000000  0.00000000  0.09893400  1
  Se  Se4  1  0.25561900  0.50000000  0.14704800  1
  Se  Se5  1  0.74438100  0.50000000  0.14704800  1
  Se  Se6  1  0.00000000  0.75561900  0.64704800  1
  Se  Se7  1  0.00000000  0.24438100  0.64704800  1
  Se  Se8  1  0.24438100  0.00000000  0.35295200  1
  Se  Se9  1  0.75561900  0.00000000  0.35295200  1
  Se  Se10  1  0.50000000  0.74438100  0.85295200  1
  Se  Se11  1  0.50000000  0.25561900  0.85295200  1
  Se  Se12  1  0.00000000  0.00000000  0.00000000  1
  Se  Se13  1  0.50000000  0.50000000  0.50000000  1
