# generated using pymatgen
data_Gd5Pb3
_symmetry_space_group_name_H-M   'P 1'
_cell_length_a   6.74609200
_cell_length_b   9.20040628
_cell_length_c   9.19876062
_cell_angle_alpha   119.96345274
_cell_angle_beta   89.99975753
_cell_angle_gamma   89.99964436
_symmetry_Int_Tables_number   1
_chemical_formula_structural   Gd5Pb3
_chemical_formula_sum   'Gd10 Pb6'
_cell_volume   494.62838581
_cell_formula_units_Z   2
loop_
 _symmetry_equiv_pos_site_id
 _symmetry_equiv_pos_as_xyz
  1  'x, y, z'
loop_
 _atom_site_type_symbol
 _atom_site_label
 _atom_site_symmetry_multiplicity
 _atom_site_fract_x
 _atom_site_fract_y
 _atom_site_fract_z
 _atom_site_occupancy
  Gd  Gd0  1  0.49970700  0.33348700  0.66713800  1
  Gd  Gd1  1  0.49979400  0.66613000  0.33268300  1
  Gd  Gd2  1  0.00026800  0.66616400  0.33268000  1
  Gd  Gd3  1  0.00030200  0.33344800  0.66681400  1
  Gd  Gd4  1  0.75006700  0.23943400  0.00033300  1
  Gd  Gd5  1  0.75053500  0.76101900  0.76076100  1
  Gd  Gd6  1  0.75021000  0.99970200  0.23887900  1
  Gd  Gd7  1  0.24957200  0.76093900  0.00032800  1
  Gd  Gd8  1  0.24997900  0.23929600  0.23898500  1
  Gd  Gd9  1  0.24954400  0.99991300  0.76099900  1
  Pb  Pb10  1  0.74998900  0.60469200  0.00009300  1
  Pb  Pb11  1  0.74987300  0.39552400  0.39581100  1
  Pb  Pb12  1  0.74994800  0.00039900  0.60446400  1
  Pb  Pb13  1  0.24997500  0.39526700  0.99963100  1
  Pb  Pb14  1  0.25010700  0.60463400  0.60470500  1
  Pb  Pb15  1  0.25013100  0.99995400  0.39569500  1
