# generated using pymatgen
data_CaSeO4
_symmetry_space_group_name_H-M   'P 1'
_cell_length_a   7.19837600
_cell_length_b   6.79723400
_cell_length_c   8.44828313
_cell_angle_alpha   53.03711508
_cell_angle_beta   90.00000000
_cell_angle_gamma   90.00000000
_symmetry_Int_Tables_number   1
_chemical_formula_structural   CaSeO4
_chemical_formula_sum   'Ca4 Se4 O16'
_cell_volume   330.29019238
_cell_formula_units_Z   4
loop_
 _symmetry_equiv_pos_site_id
 _symmetry_equiv_pos_as_xyz
  1  'x, y, z'
loop_
 _atom_site_type_symbol
 _atom_site_label
 _atom_site_symmetry_multiplicity
 _atom_site_fract_x
 _atom_site_fract_y
 _atom_site_fract_z
 _atom_site_occupancy
  Ca  Ca0  1  0.35081100  0.81098800  0.78114400  1
  Ca  Ca1  1  0.14918900  0.81098800  0.28114400  1
  Ca  Ca2  1  0.64918900  0.18901200  0.21885600  1
  Ca  Ca3  1  0.85081100  0.18901200  0.71885600  1
  Se  Se4  1  0.33832700  0.30924600  0.80526500  1
  Se  Se5  1  0.16167300  0.30924600  0.30526500  1
  Se  Se6  1  0.66167300  0.69075400  0.19473500  1
  Se  Se7  1  0.83832700  0.69075400  0.69473500  1
  O  O8  1  0.49936700  0.17774500  0.75419300  1
  O  O9  1  0.00063300  0.17774500  0.25419300  1
  O  O10  1  0.50063300  0.82225500  0.24580700  1
  O  O11  1  0.99936700  0.82225500  0.74580700  1
  O  O12  1  0.15545400  0.11681100  0.89212800  1
  O  O13  1  0.34454600  0.11681100  0.39212800  1
  O  O14  1  0.84454600  0.88318900  0.10787200  1
  O  O15  1  0.65545400  0.88318900  0.60787200  1
  O  O16  1  0.39958400  0.34072900  0.98006400  1
  O  O17  1  0.10041600  0.34072900  0.48006400  1
  O  O18  1  0.60041600  0.65927100  0.01993600  1
  O  O19  1  0.89958400  0.65927100  0.51993600  1
  O  O20  1  0.28933500  0.59983900  0.61501200  1
  O  O21  1  0.21066500  0.59983900  0.11501200  1
  O  O22  1  0.71066500  0.40016100  0.38498800  1
  O  O23  1  0.78933500  0.40016100  0.88498800  1
