# generated using pymatgen
data_KAsO3
_symmetry_space_group_name_H-M   'P 1'
_cell_length_a   7.65615600
_cell_length_b   7.65592051
_cell_length_c   10.51550119
_cell_angle_alpha   85.50660055
_cell_angle_beta   111.30604862
_cell_angle_gamma   104.37321343
_symmetry_Int_Tables_number   1
_chemical_formula_structural   KAsO3
_chemical_formula_sum   'K6 As6 O18'
_cell_volume   556.21645563
_cell_formula_units_Z   6
loop_
 _symmetry_equiv_pos_site_id
 _symmetry_equiv_pos_as_xyz
  1  'x, y, z'
loop_
 _atom_site_type_symbol
 _atom_site_label
 _atom_site_symmetry_multiplicity
 _atom_site_fract_x
 _atom_site_fract_y
 _atom_site_fract_z
 _atom_site_occupancy
  K  K0  1  0.09509400  0.10289600  0.84053500  1
  K  K1  1  0.90490600  0.89710400  0.15946500  1
  K  K2  1  0.23983000  0.23237200  0.49816100  1
  K  K3  1  0.76017000  0.76762800  0.50183900  1
  K  K4  1  0.69803500  0.48021300  0.82730300  1
  K  K5  1  0.30196500  0.51978700  0.17269700  1
  As  As6  1  0.53192500  0.97367900  0.79596200  1
  As  As7  1  0.46807500  0.02632100  0.20403800  1
  As  As8  1  0.27373200  0.73462200  0.52205800  1
  As  As9  1  0.72626800  0.26537800  0.47794200  1
  As  As10  1  0.18167100  0.63775100  0.79719900  1
  As  As11  1  0.81832900  0.36224900  0.20280100  1
  O  O12  1  0.41713700  0.14100000  0.76394100  1
  O  O13  1  0.58286300  0.85900000  0.23605900  1
  O  O14  1  0.76556800  0.00692700  0.88879500  1
  O  O15  1  0.23443200  0.99307300  0.11120500  1
  O  O16  1  0.50067200  0.86804700  0.63720600  1
  O  O17  1  0.49932800  0.13195300  0.36279400  1
  O  O18  1  0.41553300  0.78782800  0.87685100  1
  O  O19  1  0.58446700  0.21217200  0.12314900  1
  O  O20  1  0.11264000  0.85977700  0.45197000  1
  O  O21  1  0.88736000  0.14022300  0.54803000  1
  O  O22  1  0.34160100  0.61241300  0.43250300  1
  O  O23  1  0.65839900  0.38758700  0.56749700  1
  O  O24  1  0.19980800  0.57356900  0.64091300  1
  O  O25  1  0.80019200  0.42643100  0.35908700  1
  O  O26  1  0.00440700  0.74487900  0.76327600  1
  O  O27  1  0.99559300  0.25512100  0.23672400  1
  O  O28  1  0.18344800  0.45789500  0.89741300  1
  O  O29  1  0.81655200  0.54210500  0.10258700  1
