# generated using pymatgen
data_Ca5(CuN2)2
_symmetry_space_group_name_H-M   'P 1'
_cell_length_a   8.01340665
_cell_length_b   8.01340665
_cell_length_c   12.41663664
_cell_angle_alpha   90.00000000
_cell_angle_beta   90.00000000
_cell_angle_gamma   90.00000000
_symmetry_Int_Tables_number   1
_chemical_formula_structural   Ca5(CuN2)2
_chemical_formula_sum   'Ca20 Cu8 N16'
_cell_volume   797.33042473
_cell_formula_units_Z   4
loop_
 _symmetry_equiv_pos_site_id
 _symmetry_equiv_pos_as_xyz
  1  'x, y, z'
loop_
 _atom_site_type_symbol
 _atom_site_label
 _atom_site_symmetry_multiplicity
 _atom_site_fract_x
 _atom_site_fract_y
 _atom_site_fract_z
 _atom_site_occupancy
  Ca  Ca0  1  0.75000000  0.75000000  0.36232008  1
  Ca  Ca1  1  0.75000000  0.75000000  0.86232008  1
  Ca  Ca2  1  0.25000000  0.25000000  0.63767992  1
  Ca  Ca3  1  0.25000000  0.25000000  0.13767992  1
  Ca  Ca4  1  0.13270747  0.57791121  0.41037767  1
  Ca  Ca5  1  0.36729253  0.57791121  0.91037767  1
  Ca  Ca6  1  0.13270747  0.92208879  0.91037767  1
  Ca  Ca7  1  0.36729253  0.92208879  0.41037767  1
  Ca  Ca8  1  0.57791121  0.13270747  0.91037767  1
  Ca  Ca9  1  0.92208879  0.13270747  0.41037767  1
  Ca  Ca10  1  0.57791121  0.36729253  0.41037767  1
  Ca  Ca11  1  0.92208879  0.36729253  0.91037767  1
  Ca  Ca12  1  0.86729253  0.42208879  0.58962233  1
  Ca  Ca13  1  0.63270747  0.42208879  0.08962233  1
  Ca  Ca14  1  0.86729253  0.07791121  0.08962233  1
  Ca  Ca15  1  0.63270747  0.07791121  0.58962233  1
  Ca  Ca16  1  0.42208879  0.86729253  0.08962233  1
  Ca  Ca17  1  0.07791121  0.86729253  0.58962233  1
  Ca  Ca18  1  0.42208879  0.63270747  0.58962233  1
  Ca  Ca19  1  0.07791121  0.63270747  0.08962233  1
  Cu  Cu20  1  0.09267634  0.90732366  0.25000000  1
  Cu  Cu21  1  0.40732366  0.90732366  0.75000000  1
  Cu  Cu22  1  0.09267634  0.59267634  0.75000000  1
  Cu  Cu23  1  0.40732366  0.59267634  0.25000000  1
  Cu  Cu24  1  0.90732366  0.09267634  0.75000000  1
  Cu  Cu25  1  0.59267634  0.09267634  0.25000000  1
  Cu  Cu26  1  0.90732366  0.40732366  0.25000000  1
  Cu  Cu27  1  0.59267634  0.40732366  0.75000000  1
  N  N28  1  0.63680967  0.05167833  0.39564429  1
  N  N29  1  0.86319033  0.05167833  0.89564429  1
  N  N30  1  0.63680967  0.44832167  0.89564429  1
  N  N31  1  0.86319033  0.44832167  0.39564429  1
  N  N32  1  0.05167833  0.63680967  0.89564429  1
  N  N33  1  0.44832167  0.63680967  0.39564429  1
  N  N34  1  0.05167833  0.86319033  0.39564429  1
  N  N35  1  0.44832167  0.86319033  0.89564429  1
  N  N36  1  0.36319033  0.94832167  0.60435571  1
  N  N37  1  0.13680967  0.94832167  0.10435571  1
  N  N38  1  0.36319033  0.55167833  0.10435571  1
  N  N39  1  0.13680967  0.55167833  0.60435571  1
  N  N40  1  0.94832167  0.36319033  0.10435571  1
  N  N41  1  0.55167833  0.36319033  0.60435571  1
  N  N42  1  0.94832167  0.13680967  0.60435571  1
  N  N43  1  0.55167833  0.13680967  0.10435571  1
