# generated using pymatgen
data_HoCoRu
_symmetry_space_group_name_H-M   'P 1'
_cell_length_a   5.19108054
_cell_length_b   5.19108054
_cell_length_c   5.19108054
_cell_angle_alpha   120.53569052
_cell_angle_beta   120.39356028
_cell_angle_gamma   89.19715631
_symmetry_Int_Tables_number   1
_chemical_formula_structural   HoCoRu
_chemical_formula_sum   'Ho2 Co2 Ru2'
_cell_volume   98.20882194
_cell_formula_units_Z   2
loop_
 _symmetry_equiv_pos_site_id
 _symmetry_equiv_pos_as_xyz
  1  'x, y, z'
loop_
 _atom_site_type_symbol
 _atom_site_label
 _atom_site_symmetry_multiplicity
 _atom_site_fract_x
 _atom_site_fract_y
 _atom_site_fract_z
 _atom_site_occupancy
  Ho  Ho0  1  0.37577800  0.12577800  0.25000000  1
  Ho  Ho1  1  0.62422200  0.87422200  0.75000000  1
  Co  Co2  1  0.00000000  0.00000000  0.50000000  1
  Co  Co3  1  0.00000000  0.50000000  0.00000000  1
  Ru  Ru4  1  0.00000000  0.50000000  0.50000000  1
  Ru  Ru5  1  0.50000000  0.50000000  0.00000000  1
