# generated using pymatgen
data_Mg3MoN4
_symmetry_space_group_name_H-M   'P 1'
_cell_length_a   6.77615770
_cell_length_b   5.85947721
_cell_length_c   5.29002092
_cell_angle_alpha   90.00000000
_cell_angle_beta   90.00000000
_cell_angle_gamma   90.00000000
_symmetry_Int_Tables_number   1
_chemical_formula_structural   Mg3MoN4
_chemical_formula_sum   'Mg6 Mo2 N8'
_cell_volume   210.03891376
_cell_formula_units_Z   2
loop_
 _symmetry_equiv_pos_site_id
 _symmetry_equiv_pos_as_xyz
  1  'x, y, z'
loop_
 _atom_site_type_symbol
 _atom_site_label
 _atom_site_symmetry_multiplicity
 _atom_site_fract_x
 _atom_site_fract_y
 _atom_site_fract_z
 _atom_site_occupancy
  Mg  Mg0  1  0.25225596  0.16924754  0.85727386  1
  Mg  Mg1  1  0.74774404  0.16924754  0.85727386  1
  Mg  Mg2  1  0.24774404  0.83075246  0.35727386  1
  Mg  Mg3  1  0.75225596  0.83075246  0.35727386  1
  Mg  Mg4  1  0.00000000  0.66068699  0.85815978  1
  Mg  Mg5  1  0.50000000  0.33931301  0.35815978  1
  Mo  Mo6  1  0.00000000  0.32910788  0.34943498  1
  Mo  Mo7  1  0.50000000  0.67089212  0.84943498  1
  N  N8  1  0.00000000  0.63553469  0.45636354  1
  N  N9  1  0.50000000  0.36446531  0.95636354  1
  N  N10  1  0.00000000  0.32643273  0.99715317  1
  N  N11  1  0.50000000  0.67356727  0.49715317  1
  N  N12  1  0.76885982  0.17700901  0.45697990  1
  N  N13  1  0.23114018  0.17700901  0.45697990  1
  N  N14  1  0.73114018  0.82299099  0.95697990  1
  N  N15  1  0.26885982  0.82299099  0.95697990  1
