# generated using pymatgen
data_Tb2Fe17C3
_symmetry_space_group_name_H-M   'P 1'
_cell_length_a   6.50242158
_cell_length_b   6.50242158
_cell_length_c   6.50242074
_cell_angle_alpha   83.35568241
_cell_angle_beta   83.35568241
_cell_angle_gamma   83.35567620
_symmetry_Int_Tables_number   1
_chemical_formula_structural   Tb2Fe17C3
_chemical_formula_sum   'Tb2 Fe17 C3'
_cell_volume   269.78869639
_cell_formula_units_Z   1
loop_
 _symmetry_equiv_pos_site_id
 _symmetry_equiv_pos_as_xyz
  1  'x, y, z'
loop_
 _atom_site_type_symbol
 _atom_site_label
 _atom_site_symmetry_multiplicity
 _atom_site_fract_x
 _atom_site_fract_y
 _atom_site_fract_z
 _atom_site_occupancy
  Tb  Tb0  1  0.65717100  0.65717100  0.65717100  1
  Tb  Tb1  1  0.34282900  0.34282900  0.34282900  1
  Fe  Fe2  1  0.00000000  0.00000000  0.50000000  1
  Fe  Fe3  1  0.50000000  0.00000000  0.00000000  1
  Fe  Fe4  1  0.00000000  0.50000000  0.00000000  1
  Fe  Fe5  1  0.71666700  0.28333300  0.00000000  1
  Fe  Fe6  1  0.00000000  0.71666700  0.28333300  1
  Fe  Fe7  1  0.28333300  0.00000000  0.71666700  1
  Fe  Fe8  1  0.00000000  0.28333300  0.71666700  1
  Fe  Fe9  1  0.71666700  0.00000000  0.28333300  1
  Fe  Fe10  1  0.28333300  0.71666700  0.00000000  1
  Fe  Fe11  1  0.34338700  0.34338700  0.85591600  1
  Fe  Fe12  1  0.85591600  0.34338700  0.34338700  1
  Fe  Fe13  1  0.34338700  0.85591600  0.34338700  1
  Fe  Fe14  1  0.65661300  0.65661300  0.14408400  1
  Fe  Fe15  1  0.14408400  0.65661300  0.65661300  1
  Fe  Fe16  1  0.65661300  0.14408400  0.65661300  1
  Fe  Fe17  1  0.90472900  0.90472900  0.90472900  1
  Fe  Fe18  1  0.09527100  0.09527100  0.09527100  1
  C  C19  1  0.50000000  0.50000000  0.00000000  1
  C  C20  1  0.00000000  0.50000000  0.50000000  1
  C  C21  1  0.50000000  0.00000000  0.50000000  1
