# generated using pymatgen
data_Li4Ni3SbO8
_symmetry_space_group_name_H-M   'P 1'
_cell_length_a   6.00844174
_cell_length_b   10.37779928
_cell_length_c   5.97552250
_cell_angle_alpha   73.02346474
_cell_angle_beta   120.19647368
_cell_angle_gamma   106.84956846
_symmetry_Int_Tables_number   1
_chemical_formula_structural   Li4Ni3SbO8
_chemical_formula_sum   'Li8 Ni6 Sb2 O16'
_cell_volume   303.36351901
_cell_formula_units_Z   2
loop_
 _symmetry_equiv_pos_site_id
 _symmetry_equiv_pos_as_xyz
  1  'x, y, z'
loop_
 _atom_site_type_symbol
 _atom_site_label
 _atom_site_symmetry_multiplicity
 _atom_site_fract_x
 _atom_site_fract_y
 _atom_site_fract_z
 _atom_site_occupancy
  Li  Li0  1  0.25082000  0.75034300  0.75082400  1
  Li  Li1  1  0.75048300  0.25032000  0.25054200  1
  Li  Li2  1  0.01839800  0.00973900  0.50273800  1
  Li  Li3  1  0.48051200  0.48969200  0.99728700  1
  Li  Li4  1  0.24938900  0.25019300  0.24956100  1
  Li  Li5  1  0.75045800  0.75016000  0.74985900  1
  Li  Li6  1  0.50624000  0.98977600  0.49711800  1
  Li  Li7  1  0.99398700  0.50976600  0.00292500  1
  Ni  Ni8  1  0.75017300  0.24997900  0.74943500  1
  Ni  Ni9  1  0.25004000  0.74972100  0.25059200  1
  Ni  Ni10  1  0.49804800  0.00048100  0.99951600  1
  Ni  Ni11  1  0.00180200  0.50069200  0.49956500  1
  Ni  Ni12  1  0.25043500  0.24981000  0.75041100  1
  Ni  Ni13  1  0.74973400  0.74996500  0.25004700  1
  Sb  Sb14  1  0.50342700  0.49986100  0.50022000  1
  Sb  Sb15  1  0.99650300  0.99980400  0.00008000  1
  O  O16  1  0.37664900  0.13722000  0.64905000  1
  O  O17  1  0.90960300  0.63722900  0.14937400  1
  O  O18  1  0.58948700  0.86279400  0.34967900  1
  O  O19  1  0.12312900  0.36280100  0.84946400  1
  O  O20  1  0.64043400  0.88234700  0.88240500  1
  O  O21  1  0.14786800  0.37765800  0.39291400  1
  O  O22  1  0.37924900  0.61972700  0.14161700  1
  O  O23  1  0.88194200  0.11960400  0.64151800  1
  O  O24  1  0.12249600  0.87761500  0.89312900  1
  O  O25  1  0.62413600  0.38242400  0.38238100  1
  O  O26  1  0.35165900  0.12273100  0.10753100  1
  O  O27  1  0.85990500  0.61738100  0.61761300  1
  O  O28  1  0.61851000  0.38011000  0.85880300  1
  O  O29  1  0.12055300  0.88006600  0.35885400  1
  O  O30  1  0.87503200  0.11731800  0.11735600  1
  O  O31  1  0.37890200  0.62267300  0.60760000  1
