# generated using pymatgen
data_K2Sr(Ge4O9)2
_symmetry_space_group_name_H-M   'P 1'
_cell_length_a   11.81772082
_cell_length_b   11.81772082
_cell_length_c   19.58581355
_cell_angle_alpha   90.00000000
_cell_angle_beta   90.00000000
_cell_angle_gamma   120.00000423
_symmetry_Int_Tables_number   1
_chemical_formula_structural   K2Sr(Ge4O9)2
_chemical_formula_sum   'K12 Sr6 Ge48 O108'
_cell_volume   2368.86156142
_cell_formula_units_Z   6
loop_
 _symmetry_equiv_pos_site_id
 _symmetry_equiv_pos_as_xyz
  1  'x, y, z'
loop_
 _atom_site_type_symbol
 _atom_site_label
 _atom_site_symmetry_multiplicity
 _atom_site_fract_x
 _atom_site_fract_y
 _atom_site_fract_z
 _atom_site_occupancy
  K  K0  1  0.99798270  0.33549983  0.96078107  1
  K  K1  1  0.00201730  0.66450017  0.03921893  1
  K  K2  1  0.33751713  0.00201730  0.96078107  1
  K  K3  1  0.66248287  0.66450017  0.53921893  1
  K  K4  1  0.66248287  0.99798270  0.03921893  1
  K  K5  1  0.33751713  0.33549983  0.46078107  1
  K  K6  1  0.66450017  0.66248287  0.96078107  1
  K  K7  1  0.33549983  0.99798270  0.53921893  1
  K  K8  1  0.33549983  0.33751713  0.03921893  1
  K  K9  1  0.66450017  0.00201730  0.46078107  1
  K  K10  1  0.00201730  0.33751713  0.53921893  1
  K  K11  1  0.99798270  0.66248287  0.46078107  1
  Sr  Sr12  1  0.66447898  0.66447898  0.75000000  1
  Sr  Sr13  1  0.33552102  0.33552102  0.25000000  1
  Sr  Sr14  1  0.00000000  0.33552102  0.75000000  1
  Sr  Sr15  1  1.00000000  0.66447898  0.25000000  1
  Sr  Sr16  1  0.33552102  0.00000000  0.75000000  1
  Sr  Sr17  1  0.66447898  1.00000000  0.25000000  1
  Ge  Ge18  1  0.66666700  0.33333300  0.97805016  1
  Ge  Ge19  1  0.33333300  0.66666700  0.02194984  1
  Ge  Ge20  1  0.33333300  0.66666700  0.52194984  1
  Ge  Ge21  1  0.66666700  0.33333300  0.47805016  1
  Ge  Ge22  1  0.66666700  0.33333300  0.72820028  1
  Ge  Ge23  1  0.33333300  0.66666700  0.27179972  1
  Ge  Ge24  1  0.33333300  0.66666700  0.77179972  1
  Ge  Ge25  1  0.66666700  0.33333300  0.22820028  1
  Ge  Ge26  1  -0.00000000  -0.00000000  0.00000000  1
  Ge  Ge27  1  -0.00000000  -0.00000000  0.50000000  1
  Ge  Ge28  1  0.82563412  0.00368861  0.87239378  1
  Ge  Ge29  1  0.17436588  0.99631139  0.12760622  1
  Ge  Ge30  1  0.17805449  0.17436588  0.87239378  1
  Ge  Ge31  1  0.82194551  0.99631139  0.62760622  1
  Ge  Ge32  1  0.82194551  0.82563412  0.12760622  1
  Ge  Ge33  1  0.17805449  0.00368861  0.37239378  1
  Ge  Ge34  1  0.99631139  0.82194551  0.87239378  1
  Ge  Ge35  1  0.00368861  0.82563412  0.62760622  1
  Ge  Ge36  1  0.00368861  0.17805449  0.12760622  1
  Ge  Ge37  1  0.99631139  0.17436588  0.37239378  1
  Ge  Ge38  1  0.17436588  0.17805449  0.62760622  1
  Ge  Ge39  1  0.82563412  0.82194551  0.37239378  1
  Ge  Ge40  1  0.66121158  0.14504258  0.85058480  1
  Ge  Ge41  1  0.33878842  0.85495742  0.14941520  1
  Ge  Ge42  1  0.48383100  0.33878842  0.85058480  1
  Ge  Ge43  1  0.51616900  0.85495742  0.64941520  1
  Ge  Ge44  1  0.51616900  0.66121158  0.14941520  1
  Ge  Ge45  1  0.48383100  0.14504258  0.35058480  1
  Ge  Ge46  1  0.85495742  0.51616900  0.85058480  1
  Ge  Ge47  1  0.14504258  0.66121158  0.64941520  1
  Ge  Ge48  1  0.14504258  0.48383100  0.14941520  1
  Ge  Ge49  1  0.85495742  0.33878842  0.35058480  1
  Ge  Ge50  1  0.33878842  0.48383100  0.64941520  1
  Ge  Ge51  1  0.66121158  0.51616900  0.35058480  1
  Ge  Ge52  1  0.51120959  0.84475861  0.89111016  1
  Ge  Ge53  1  0.48879041  0.15524139  0.10888984  1
  Ge  Ge54  1  0.33354903  0.48879041  0.89111016  1
  Ge  Ge55  1  0.66645097  0.15524139  0.60888984  1
  Ge  Ge56  1  0.66645097  0.51120959  0.10888984  1
  Ge  Ge57  1  0.33354903  0.84475861  0.39111016  1
  Ge  Ge58  1  0.15524139  0.66645097  0.89111016  1
  Ge  Ge59  1  0.84475861  0.51120959  0.60888984  1
  Ge  Ge60  1  0.84475861  0.33354903  0.10888984  1
  Ge  Ge61  1  0.15524139  0.48879041  0.39111016  1
  Ge  Ge62  1  0.48879041  0.33354903  0.60888984  1
  Ge  Ge63  1  0.51120959  0.66645097  0.39111016  1
  Ge  Ge64  1  -0.00000000  -0.00000000  0.75000000  1
  Ge  Ge65  1  -0.00000000  -0.00000000  0.25000000  1
  O  O66  1  0.72749657  0.24047471  0.92349546  1
  O  O67  1  0.27250343  0.75952529  0.07650454  1
  O  O68  1  0.51297814  0.27250343  0.92349546  1
  O  O69  1  0.48702186  0.75952529  0.57650454  1
  O  O70  1  0.48702186  0.72749657  0.07650454  1
  O  O71  1  0.51297814  0.24047471  0.42349546  1
  O  O72  1  0.75952529  0.48702186  0.92349546  1
  O  O73  1  0.24047471  0.72749657  0.57650454  1
  O  O74  1  0.24047471  0.51297814  0.07650454  1
  O  O75  1  0.75952529  0.27250343  0.42349546  1
  O  O76  1  0.27250343  0.51297814  0.57650454  1
  O  O77  1  0.72749657  0.48702186  0.42349546  1
  O  O78  1  0.67612715  0.89348874  0.91541791  1
  O  O79  1  0.32387285  0.10651126  0.08458209  1
  O  O80  1  0.21736158  0.32387285  0.91541791  1
  O  O81  1  0.78263842  0.10651126  0.58458209  1
  O  O82  1  0.78263842  0.67612715  0.08458209  1
  O  O83  1  0.21736158  0.89348874  0.41541791  1
  O  O84  1  0.10651126  0.78263842  0.91541791  1
  O  O85  1  0.89348874  0.67612715  0.58458209  1
  O  O86  1  0.89348874  0.21736158  0.08458209  1
  O  O87  1  0.10651126  0.32387285  0.41541791  1
  O  O88  1  0.32387285  0.21736158  0.58458209  1
  O  O89  1  0.67612715  0.78263842  0.41541791  1
  O  O90  1  0.81920707  0.40541576  0.78235908  1
  O  O91  1  0.18079293  0.59458424  0.21764092  1
  O  O92  1  0.58620869  0.18079293  0.78235908  1
  O  O93  1  0.41379131  0.59458424  0.71764092  1
  O  O94  1  0.41379131  0.81920707  0.21764092  1
  O  O95  1  0.58620869  0.40541576  0.28235908  1
  O  O96  1  0.59458424  0.41379131  0.78235908  1
  O  O97  1  0.40541576  0.81920707  0.71764092  1
  O  O98  1  0.40541576  0.58620869  0.21764092  1
  O  O99  1  0.59458424  0.18079293  0.28235908  1
  O  O100  1  0.18079293  0.58620869  0.71764092  1
  O  O101  1  0.81920707  0.41379131  0.28235908  1
  O  O102  1  0.93162306  0.08375695  0.94134632  1
  O  O103  1  0.06837694  0.91624305  0.05865368  1
  O  O104  1  0.15213389  0.06837694  0.94134632  1
  O  O105  1  0.84786611  0.91624305  0.55865368  1
  O  O106  1  0.84786611  0.93162306  0.05865368  1
  O  O107  1  0.15213389  0.08375695  0.44134632  1
  O  O108  1  0.91624305  0.84786611  0.94134632  1
  O  O109  1  0.08375695  0.93162306  0.55865368  1
  O  O110  1  0.08375695  0.15213389  0.05865368  1
  O  O111  1  0.91624305  0.06837694  0.44134632  1
  O  O112  1  0.06837694  0.15213389  0.55865368  1
  O  O113  1  0.93162306  0.84786611  0.44134632  1
  O  O114  1  0.79692116  0.12255805  0.82707417  1
  O  O115  1  0.20307884  0.87744195  0.17292583  1
  O  O116  1  0.32563689  0.20307884  0.82707417  1
  O  O117  1  0.67436311  0.87744195  0.67292583  1
  O  O118  1  0.67436311  0.79692116  0.17292583  1
  O  O119  1  0.32563689  0.12255805  0.32707417  1
  O  O120  1  0.87744195  0.67436311  0.82707417  1
  O  O121  1  0.12255805  0.79692116  0.67292583  1
  O  O122  1  0.12255805  0.32563689  0.17292583  1
  O  O123  1  0.87744195  0.20307884  0.32707417  1
  O  O124  1  0.20307884  0.32563689  0.67292583  1
  O  O125  1  0.79692116  0.67436311  0.32707417  1
  O  O126  1  0.47600159  0.48508436  0.86383079  1
  O  O127  1  0.52399841  0.51491564  0.13616921  1
  O  O128  1  0.00908277  0.52399841  0.86383079  1
  O  O129  1  0.99091723  0.51491564  0.63616921  1
  O  O130  1  0.99091723  0.47600159  0.13616921  1
  O  O131  1  0.00908277  0.48508436  0.36383079  1
  O  O132  1  0.51491564  0.99091723  0.86383079  1
  O  O133  1  0.48508436  0.47600159  0.63616921  1
  O  O134  1  0.48508436  0.00908277  0.13616921  1
  O  O135  1  0.51491564  0.52399841  0.36383079  1
  O  O136  1  0.52399841  0.00908277  0.63616921  1
  O  O137  1  0.47600159  0.99091723  0.36383079  1
  O  O138  1  0.84745930  0.91025245  0.80770309  1
  O  O139  1  0.15254070  0.08974755  0.19229691  1
  O  O140  1  0.06279315  0.15254070  0.80770309  1
  O  O141  1  0.93720685  0.08974755  0.69229691  1
  O  O142  1  0.93720685  0.84745930  0.19229691  1
  O  O143  1  0.06279315  0.91025245  0.30770309  1
  O  O144  1  0.08974755  0.93720685  0.80770309  1
  O  O145  1  0.91025245  0.84745930  0.69229691  1
  O  O146  1  0.91025245  0.06279315  0.19229691  1
  O  O147  1  0.08974755  0.15254070  0.30770309  1
  O  O148  1  0.15254070  0.06279315  0.69229691  1
  O  O149  1  0.84745930  0.93720685  0.30770309  1
  O  O150  1  0.39488031  0.57547565  0.96709759  1
  O  O151  1  0.60511969  0.42452435  0.03290241  1
  O  O152  1  0.18059534  0.60511969  0.96709759  1
  O  O153  1  0.81940466  0.42452435  0.53290241  1
  O  O154  1  0.81940466  0.39488031  0.03290241  1
  O  O155  1  0.18059534  0.57547565  0.46709759  1
  O  O156  1  0.42452435  0.81940466  0.96709759  1
  O  O157  1  0.57547565  0.39488031  0.53290241  1
  O  O158  1  0.57547565  0.18059534  0.03290241  1
  O  O159  1  0.42452435  0.60511969  0.46709759  1
  O  O160  1  0.60511969  0.18059534  0.53290241  1
  O  O161  1  0.39488031  0.81940466  0.46709759  1
  O  O162  1  0.48477287  0.72659658  0.82861121  1
  O  O163  1  0.51522713  0.27340342  0.17138879  1
  O  O164  1  0.24182371  0.51522713  0.82861121  1
  O  O165  1  0.75817629  0.27340342  0.67138879  1
  O  O166  1  0.75817629  0.48477287  0.17138879  1
  O  O167  1  0.24182371  0.72659658  0.32861121  1
  O  O168  1  0.27340342  0.75817629  0.82861121  1
  O  O169  1  0.72659658  0.48477287  0.67138879  1
  O  O170  1  0.72659658  0.24182371  0.17138879  1
  O  O171  1  0.27340342  0.51522713  0.32861121  1
  O  O172  1  0.51522713  0.24182371  0.67138879  1
  O  O173  1  0.48477287  0.75817629  0.32861121  1
