# generated using pymatgen
data_CoPO4
_symmetry_space_group_name_H-M   'P 1'
_cell_length_a   5.22927500
_cell_length_b   10.46467800
_cell_length_c   13.47171700
_cell_angle_alpha   90.00000000
_cell_angle_beta   90.00000000
_cell_angle_gamma   90.00000000
_symmetry_Int_Tables_number   1
_chemical_formula_structural   CoPO4
_chemical_formula_sum   'Co8 P8 O32'
_cell_volume   737.20844562
_cell_formula_units_Z   8
loop_
 _symmetry_equiv_pos_site_id
 _symmetry_equiv_pos_as_xyz
  1  'x, y, z'
loop_
 _atom_site_type_symbol
 _atom_site_label
 _atom_site_symmetry_multiplicity
 _atom_site_fract_x
 _atom_site_fract_y
 _atom_site_fract_z
 _atom_site_occupancy
  Co  Co0  1  0.92839000  0.03306100  0.49759900  1
  Co  Co1  1  0.55312900  0.21543300  0.24942700  1
  Co  Co2  1  0.55312900  0.28456700  0.74942700  1
  Co  Co3  1  0.92839000  0.46693900  0.99759900  1
  Co  Co4  1  0.07161000  0.53306100  0.49759900  1
  Co  Co5  1  0.44687100  0.71543300  0.24942700  1
  Co  Co6  1  0.44687100  0.78456700  0.74942700  1
  Co  Co7  1  0.07161000  0.96693900  0.99759900  1
  P  P8  1  0.43553800  0.03306200  0.62380700  1
  P  P9  1  0.04904500  0.22021700  0.87267300  1
  P  P10  1  0.04904500  0.27978300  0.37267300  1
  P  P11  1  0.43553800  0.46693800  0.12380700  1
  P  P12  1  0.56446200  0.53306200  0.62380700  1
  P  P13  1  0.95095500  0.72021700  0.87267300  1
  P  P14  1  0.95095500  0.77978300  0.37267300  1
  P  P15  1  0.56446200  0.96693800  0.12380700  1
  O  O16  1  0.85187600  0.99271800  0.10365700  1
  O  O17  1  0.41036100  0.00417500  0.02957800  1
  O  O18  1  0.48728000  0.04520900  0.21680000  1
  O  O19  1  0.00406300  0.07568400  0.89119700  1
  O  O20  1  0.48294000  0.17670700  0.64384100  1
  O  O21  1  0.89779800  0.23802700  0.27906500  1
  O  O22  1  0.96032300  0.20524600  0.46627200  1
  O  O23  1  0.33761600  0.24542600  0.85507100  1
  O  O24  1  0.33761600  0.25457400  0.35507100  1
  O  O25  1  0.96032300  0.29475400  0.96627200  1
  O  O26  1  0.89779800  0.26197300  0.77906500  1
  O  O27  1  0.48294000  0.32329300  0.14384100  1
  O  O28  1  0.00406300  0.42431600  0.39119700  1
  O  O29  1  0.48728000  0.45479100  0.71680000  1
  O  O30  1  0.41036100  0.49582500  0.52957800  1
  O  O31  1  0.85187600  0.50728200  0.60365700  1
  O  O32  1  0.14812400  0.49271800  0.10365700  1
  O  O33  1  0.58963900  0.50417500  0.02957800  1
  O  O34  1  0.51272000  0.54520900  0.21680000  1
  O  O35  1  0.99593700  0.57568400  0.89119700  1
  O  O36  1  0.51706000  0.67670700  0.64384100  1
  O  O37  1  0.10220200  0.73802700  0.27906500  1
  O  O38  1  0.03967700  0.70524600  0.46627200  1
  O  O39  1  0.66238400  0.74542600  0.85507100  1
  O  O40  1  0.66238400  0.75457400  0.35507100  1
  O  O41  1  0.03967700  0.79475400  0.96627200  1
  O  O42  1  0.10220200  0.76197300  0.77906500  1
  O  O43  1  0.51706000  0.82329300  0.14384100  1
  O  O44  1  0.99593700  0.92431600  0.39119700  1
  O  O45  1  0.51272000  0.95479100  0.71680000  1
  O  O46  1  0.58963900  0.99582500  0.52957800  1
  O  O47  1  0.14812400  0.00728200  0.60365700  1
