# generated using pymatgen
data_Nd3Sb4Pt7
_symmetry_space_group_name_H-M   'P 1'
_cell_length_a   8.64846948
_cell_length_b   8.64846948
_cell_length_c   10.54270217
_cell_angle_alpha   52.68120316
_cell_angle_beta   52.68120316
_cell_angle_gamma   29.03777699
_symmetry_Int_Tables_number   1
_chemical_formula_structural   Nd3Sb4Pt7
_chemical_formula_sum   'Nd3 Sb4 Pt7'
_cell_volume   298.40270875
_cell_formula_units_Z   1
loop_
 _symmetry_equiv_pos_site_id
 _symmetry_equiv_pos_as_xyz
  1  'x, y, z'
loop_
 _atom_site_type_symbol
 _atom_site_label
 _atom_site_symmetry_multiplicity
 _atom_site_fract_x
 _atom_site_fract_y
 _atom_site_fract_z
 _atom_site_occupancy
  Nd  Nd0  1  0.50000000  0.50000000  0.00000000  1
  Nd  Nd1  1  0.82813000  0.82813000  0.68446900  1
  Nd  Nd2  1  0.17187000  0.17187000  0.31553100  1
  Sb  Sb3  1  0.63926000  0.63926000  0.59176900  1
  Sb  Sb4  1  0.17201800  0.17201800  0.97464600  1
  Sb  Sb5  1  0.82798200  0.82798200  0.02535400  1
  Sb  Sb6  1  0.36074000  0.36074000  0.40823100  1
  Pt  Pt7  1  0.82969900  0.82969900  0.27165000  1
  Pt  Pt8  1  0.62286500  0.62286500  0.15417700  1
  Pt  Pt9  1  0.50000000  0.50000000  0.50000000  1
  Pt  Pt10  1  0.17030100  0.17030100  0.72835000  1
  Pt  Pt11  1  0.98425900  0.98425900  0.32243900  1
  Pt  Pt12  1  0.01574100  0.01574100  0.67756100  1
  Pt  Pt13  1  0.37713500  0.37713500  0.84582300  1
