# generated using pymatgen
data_K5Sm(MoO4)4
_symmetry_space_group_name_H-M   'P 1'
_cell_length_a   6.25406000
_cell_length_b   7.88891300
_cell_length_c   9.83756167
_cell_angle_alpha   73.76545805
_cell_angle_beta   90.00000000
_cell_angle_gamma   90.00000000
_symmetry_Int_Tables_number   1
_chemical_formula_structural   K5Sm(MoO4)4
_chemical_formula_sum   'K5 Sm1 Mo4 O16'
_cell_volume   466.00931593
_cell_formula_units_Z   1
loop_
 _symmetry_equiv_pos_site_id
 _symmetry_equiv_pos_as_xyz
  1  'x, y, z'
loop_
 _atom_site_type_symbol
 _atom_site_label
 _atom_site_symmetry_multiplicity
 _atom_site_fract_x
 _atom_site_fract_y
 _atom_site_fract_z
 _atom_site_occupancy
  K  K0  1  0.50000000  0.15973400  0.28280800  1
  K  K1  1  0.00000000  0.59241600  0.81632200  1
  K  K2  1  0.50000000  0.84026600  0.71719200  1
  K  K3  1  0.00000000  0.40758400  0.18367800  1
  K  K4  1  0.00000000  0.00000000  0.00000000  1
  Sm  Sm5  1  0.50000000  0.50000000  0.50000000  1
  Mo  Mo6  1  0.00000000  0.20006000  0.60106200  1
  Mo  Mo7  1  0.50000000  0.71542000  0.09850400  1
  Mo  Mo8  1  0.00000000  0.79994000  0.39893800  1
  Mo  Mo9  1  0.50000000  0.28458000  0.90149600  1
  O  O10  1  0.24122200  0.71644500  0.50180800  1
  O  O11  1  0.72900400  0.28688300  0.00997100  1
  O  O12  1  0.00000000  0.03454000  0.33095800  1
  O  O13  1  0.50000000  0.47898200  0.74319500  1
  O  O14  1  0.75877800  0.71644500  0.50180800  1
  O  O15  1  0.27099600  0.28688300  0.00997100  1
  O  O16  1  0.75877800  0.28355500  0.49819200  1
  O  O17  1  0.27099600  0.71311700  0.99002900  1
  O  O18  1  0.00000000  0.96546000  0.66904200  1
  O  O19  1  0.50000000  0.52101800  0.25680500  1
  O  O20  1  0.24122200  0.28355500  0.49819200  1
  O  O21  1  0.72900400  0.71311700  0.99002900  1
  O  O22  1  0.50000000  0.90722000  0.15954100  1
  O  O23  1  0.00000000  0.28765700  0.74714500  1
  O  O24  1  0.50000000  0.09278000  0.84045900  1
  O  O25  1  0.00000000  0.71234300  0.25285500  1
