# generated using pymatgen
data_AgPbF6
_symmetry_space_group_name_H-M   'P 1'
_cell_length_a   5.61776555
_cell_length_b   5.57073128
_cell_length_c   5.92410732
_cell_angle_alpha   89.40011218
_cell_angle_beta   63.16066694
_cell_angle_gamma   62.08536161
_symmetry_Int_Tables_number   1
_chemical_formula_structural   AgPbF6
_chemical_formula_sum   'Ag1 Pb1 F6'
_cell_volume   141.35140571
_cell_formula_units_Z   1
loop_
 _symmetry_equiv_pos_site_id
 _symmetry_equiv_pos_as_xyz
  1  'x, y, z'
loop_
 _atom_site_type_symbol
 _atom_site_label
 _atom_site_symmetry_multiplicity
 _atom_site_fract_x
 _atom_site_fract_y
 _atom_site_fract_z
 _atom_site_occupancy
  Ag  Ag0  1  0.00000000  0.00000000  0.00000000  1
  Pb  Pb1  1  0.00000000  0.50000000  0.50000000  1
  F  F2  1  0.88882100  0.86338412  0.74441528  1
  F  F3  1  0.11117900  0.13661588  0.25558472  1
  F  F4  1  0.86964890  0.75365468  0.25224879  1
  F  F5  1  0.13035110  0.24634532  0.74775121  1
  F  F6  1  0.54081310  0.60534103  0.72627197  1
  F  F7  1  0.45918690  0.39465897  0.27372803  1
