# generated using pymatgen
data_Te7RuI6
_symmetry_space_group_name_H-M   'P 1'
_cell_length_a   10.26664900
_cell_length_b   10.46550822
_cell_length_c   11.72746990
_cell_angle_alpha   102.29856274
_cell_angle_beta   103.58918286
_cell_angle_gamma   110.87012440
_symmetry_Int_Tables_number   1
_chemical_formula_structural   Te7RuI6
_chemical_formula_sum   'Te14 Ru2 I12'
_cell_volume   1081.63992341
_cell_formula_units_Z   2
loop_
 _symmetry_equiv_pos_site_id
 _symmetry_equiv_pos_as_xyz
  1  'x, y, z'
loop_
 _atom_site_type_symbol
 _atom_site_label
 _atom_site_symmetry_multiplicity
 _atom_site_fract_x
 _atom_site_fract_y
 _atom_site_fract_z
 _atom_site_occupancy
  Te  Te0  1  0.92544400  0.01483800  0.70813800  1
  Te  Te1  1  0.07455600  0.98516200  0.29186200  1
  Te  Te2  1  0.18233000  0.27272000  0.86946200  1
  Te  Te3  1  0.81767000  0.72728000  0.13053800  1
  Te  Te4  1  0.75337900  0.11934500  0.82680700  1
  Te  Te5  1  0.24662100  0.88065500  0.17319300  1
  Te  Te6  1  0.01980300  0.32883900  0.02446400  1
  Te  Te7  1  0.98019700  0.67116100  0.97553600  1
  Te  Te8  1  0.19775500  0.06821400  0.02032000  1
  Te  Te9  1  0.80224500  0.93178600  0.97968000  1
  Te  Te10  1  0.71627600  0.62144700  0.67232500  1
  Te  Te11  1  0.28372400  0.37855300  0.32767500  1
  Te  Te12  1  0.09861000  0.75088000  0.71117500  1
  Te  Te13  1  0.90139000  0.24912000  0.28882500  1
  Ru  Ru14  1  0.95332100  0.83898200  0.83925900  1
  Ru  Ru15  1  0.04667900  0.16101800  0.16074100  1
  I  I16  1  0.52363200  0.77090300  0.61524400  1
  I  I17  1  0.47636800  0.22909700  0.38475600  1
  I  I18  1  0.82096300  0.67124900  0.45644100  1
  I  I19  1  0.17903700  0.32875100  0.54355900  1
  I  I20  1  0.88473500  0.41987700  0.66774900  1
  I  I21  1  0.11526500  0.58012300  0.33225100  1
  I  I22  1  0.58516200  0.47554800  0.84702300  1
  I  I23  1  0.41483800  0.52445200  0.15297700  1
  I  I24  1  0.28867400  0.02121300  0.68540700  1
  I  I25  1  0.71132600  0.97878700  0.31459300  1
  I  I26  1  0.33077300  0.74463200  0.90814500  1
  I  I27  1  0.66922700  0.25536800  0.09185500  1
