# generated using pymatgen
data_NpH4ClO4
_symmetry_space_group_name_H-M   'P 1'
_cell_length_a   9.16535100
_cell_length_b   16.04034121
_cell_length_c   16.04034121
_cell_angle_alpha   85.31815477
_cell_angle_beta   73.39949082
_cell_angle_gamma   73.39949082
_symmetry_Int_Tables_number   1
_chemical_formula_structural   NpH4ClO4
_chemical_formula_sum   'Np16 H64 Cl16 O64'
_cell_volume   2165.69573989
_cell_formula_units_Z   16
loop_
 _symmetry_equiv_pos_site_id
 _symmetry_equiv_pos_as_xyz
  1  'x, y, z'
loop_
 _atom_site_type_symbol
 _atom_site_label
 _atom_site_symmetry_multiplicity
 _atom_site_fract_x
 _atom_site_fract_y
 _atom_site_fract_z
 _atom_site_occupancy
  Np  Np0  1  0.14705774  0.37823185  0.60602718  1
  Np  Np1  1  0.13131677  0.12176815  0.89397282  1
  Np  Np2  1  0.02528959  0.60602718  0.12176815  1
  Np  Np3  1  0.75308492  0.89397282  0.37823185  1
  Np  Np4  1  0.85294226  0.62176815  0.39397282  1
  Np  Np5  1  0.86868323  0.87823185  0.10602718  1
  Np  Np6  1  0.97471041  0.39397282  0.87823185  1
  Np  Np7  1  0.24691508  0.10602718  0.62176815  1
  Np  Np8  1  0.98804285  0.34462604  0.38756110  1
  Np  Np9  1  0.72023000  0.15537396  0.11243890  1
  Np  Np10  1  0.83266889  0.38756110  0.15537396  1
  Np  Np11  1  0.37560395  0.11243890  0.34462604  1
  Np  Np12  1  0.01195715  0.65537396  0.61243890  1
  Np  Np13  1  0.27977000  0.84462604  0.88756110  1
  Np  Np14  1  0.16733111  0.61243890  0.84462604  1
  Np  Np15  1  0.62439605  0.88756110  0.65537396  1
  H  H16  1  0.87241479  0.17671472  0.43159332  1
  H  H17  1  0.48072284  0.32328528  0.06840668  1
  H  H18  1  0.54912951  0.43159332  0.32328528  1
  H  H19  1  0.30400811  0.06840668  0.17671472  1
  H  H20  1  0.12758521  0.82328528  0.56840668  1
  H  H21  1  0.51927716  0.67671472  0.93159332  1
  H  H22  1  0.45087049  0.56840668  0.67671472  1
  H  H23  1  0.69599189  0.93159332  0.82328528  1
  H  H24  1  0.88353184  0.20842840  0.51969873  1
  H  H25  1  0.61165897  0.29157160  0.98030127  1
  H  H26  1  0.59196025  0.51969873  0.29157160  1
  H  H27  1  0.40323057  0.98030127  0.20842840  1
  H  H28  1  0.11646816  0.79157160  0.48030127  1
  H  H29  1  0.38834103  0.70842840  0.01969873  1
  H  H30  1  0.40803975  0.48030127  0.70842840  1
  H  H31  1  0.59676943  0.01969873  0.79157160  1
  H  H32  1  0.68346625  0.46496702  0.51068717  1
  H  H33  1  0.65912043  0.03503298  0.98931283  1
  H  H34  1  0.64843326  0.51068717  0.03503298  1
  H  H35  1  0.19415341  0.98931283  0.46496702  1
  H  H36  1  0.31653375  0.53503298  0.48931283  1
  H  H37  1  0.34087957  0.96496702  0.01068717  1
  H  H38  1  0.35156674  0.48931283  0.96496702  1
  H  H39  1  0.80584659  0.01068717  0.53503298  1
  H  H40  1  0.63235797  0.37874399  0.51224583  1
  H  H41  1  0.52334779  0.12125601  0.98775417  1
  H  H42  1  0.51110196  0.51224583  0.12125601  1
  H  H43  1  0.14460380  0.98775417  0.37874399  1
  H  H44  1  0.36764203  0.62125601  0.48775417  1
  H  H45  1  0.47665221  0.87874399  0.01224583  1
  H  H46  1  0.48889804  0.48775417  0.87874399  1
  H  H47  1  0.85539620  0.01224583  0.62125601  1
  H  H48  1  0.23964317  0.41126811  0.24012287  1
  H  H49  1  0.89103415  0.08873189  0.25987713  1
  H  H50  1  0.15091128  0.24012287  0.08873189  1
  H  H51  1  0.47976604  0.25987713  0.41126811  1
  H  H52  1  0.76035683  0.58873189  0.75987713  1
  H  H53  1  0.10896585  0.91126811  0.74012287  1
  H  H54  1  0.84908872  0.75987713  0.91126811  1
  H  H55  1  0.52023396  0.74012287  0.58873189  1
  H  H56  1  0.27647762  0.40829539  0.33286470  1
  H  H57  1  0.01763772  0.09170461  0.16713530  1
  H  H58  1  0.18477302  0.33286470  0.09170461  1
  H  H59  1  0.60934233  0.16713530  0.40829539  1
  H  H60  1  0.72352238  0.59170461  0.66713530  1
  H  H61  1  0.98236228  0.90829539  0.83286470  1
  H  H62  1  0.81522698  0.66713530  0.90829539  1
  H  H63  1  0.39065767  0.83286470  0.59170461  1
  H  H64  1  0.19472846  0.61989992  0.39085519  1
  H  H65  1  0.20548356  0.88010008  0.10914481  1
  H  H66  1  0.31462837  0.39085519  0.88010008  1
  H  H67  1  0.58558365  0.10914481  0.61989992  1
  H  H68  1  0.80527154  0.38010008  0.60914481  1
  H  H69  1  0.79451644  0.11989992  0.89085519  1
  H  H70  1  0.68537163  0.60914481  0.11989992  1
  H  H71  1  0.41441635  0.89085519  0.38010008  1
  H  H72  1  0.18574676  0.63544232  0.29251237  1
  H  H73  1  0.11370145  0.86455768  0.20748763  1
  H  H74  1  0.32118908  0.29251237  0.86455768  1
  H  H75  1  0.47825913  0.20748763  0.63544232  1
  H  H76  1  0.81425324  0.36455768  0.70748763  1
  H  H77  1  0.88629855  0.13544232  0.79251237  1
  H  H78  1  0.67881092  0.70748763  0.13544232  1
  H  H79  1  0.52174087  0.79251237  0.36455768  1
  Cl  Cl80  1  0.92319074  0.15934287  0.63967370  1
  Cl  Cl81  1  0.72220731  0.34065713  0.86032630  1
  Cl  Cl82  1  0.58253361  0.63967370  0.34065713  1
  Cl  Cl83  1  0.56286444  0.86032630  0.15934287  1
  Cl  Cl84  1  0.07680926  0.84065713  0.36032630  1
  Cl  Cl85  1  0.27779269  0.65934287  0.13967370  1
  Cl  Cl86  1  0.41746639  0.36032630  0.65934287  1
  Cl  Cl87  1  0.43713556  0.13967370  0.84065713  1
  Cl  Cl88  1  0.29330343  0.44366164  0.10619395  1
  Cl  Cl89  1  0.84315901  0.05633836  0.39380605  1
  Cl  Cl90  1  0.23696506  0.10619395  0.05633836  1
  Cl  Cl91  1  0.39949737  0.39380605  0.44366164  1
  Cl  Cl92  1  0.70669657  0.55633836  0.89380605  1
  Cl  Cl93  1  0.15684099  0.94366164  0.60619395  1
  Cl  Cl94  1  0.76303494  0.89380605  0.94366164  1
  Cl  Cl95  1  0.60050263  0.60619395  0.55633836  1
  O  O96  1  0.29992798  0.10087048  0.49997461  1
  O  O97  1  0.90077307  0.39912952  0.00002539  1
  O  O98  1  0.90079846  0.49997461  0.39912952  1
  O  O99  1  0.79990259  0.00002539  0.10087048  1
  O  O100  1  0.70007202  0.89912952  0.50002539  1
  O  O101  1  0.09922693  0.60087048  -0.00002539  1
  O  O102  1  0.09920154  0.50002539  0.60087048  1
  O  O103  1  0.20009741  -0.00002539  0.89912952  1
  O  O104  1  0.19890408  0.25676852  0.61435078  1
  O  O105  1  0.07002338  0.24323148  0.88564922  1
  O  O106  1  0.95567260  0.61435078  0.24323148  1
  O  O107  1  0.81325487  0.88564922  0.25676852  1
  O  O108  1  0.80109592  0.74323148  0.38564922  1
  O  O109  1  0.92997662  0.75676852  0.11435078  1
  O  O110  1  0.04432740  0.38564922  0.75676852  1
  O  O111  1  0.18674513  0.11435078  0.74323148  1
  O  O112  1  0.86887983  0.22889450  0.46152174  1
  O  O113  1  0.55929608  0.27110550  0.03847826  1
  O  O114  1  0.59777434  0.46152174  0.27110550  1
  O  O115  1  0.33040157  0.03847826  0.22889450  1
  O  O116  1  0.13112017  0.77110550  0.53847826  1
  O  O117  1  0.44070392  0.72889450  0.96152174  1
  O  O118  1  0.40222566  0.53847826  0.72889450  1
  O  O119  1  0.66959843  0.96152174  0.77110550  1
  O  O120  1  0.19893631  0.20612474  0.34371344  1
  O  O121  1  0.74877449  0.29387526  0.15628656  1
  O  O122  1  0.90506105  0.34371344  0.29387526  1
  O  O123  1  0.54264975  0.15628656  0.20612474  1
  O  O124  1  0.80106369  0.79387526  0.65628656  1
  O  O125  1  0.25122551  0.70612474  0.84371344  1
  O  O126  1  0.09493895  0.65628656  0.70612474  1
  O  O127  1  0.45735025  0.84371344  0.79387526  1
  O  O128  1  0.06861338  0.34992825  0.48109674  1
  O  O129  1  0.89963837  0.15007175  0.01890326  1
  O  O130  1  0.91854163  0.48109674  0.15007175  1
  O  O131  1  0.54971012  0.01890326  0.34992825  1
  O  O132  1  0.93138662  0.65007175  0.51890326  1
  O  O133  1  0.10036163  0.84992825  0.98109674  1
  O  O134  1  0.08145837  0.51890326  0.84992825  1
  O  O135  1  0.45028988  0.98109674  0.65007175  1
  O  O136  1  0.72437644  0.40115831  0.50525923  1
  O  O137  1  0.63079398  0.09884169  0.99474077  1
  O  O138  1  0.62553474  0.50525923  0.09884169  1
  O  O139  1  0.22963567  0.99474077  0.40115831  1
  O  O140  1  0.27562356  0.59884169  0.49474077  1
  O  O141  1  0.36920602  0.90115831  0.00525923  1
  O  O142  1  0.37446526  0.49474077  0.90115831  1
  O  O143  1  0.77036433  0.00525923  0.59884169  1
  O  O144  1  0.21682592  0.38838311  0.30028763  1
  O  O145  1  0.90549665  0.11161689  0.19971237  1
  O  O146  1  0.10520902  0.30028763  0.11161689  1
  O  O147  1  0.51711354  0.19971237  0.38838311  1
  O  O148  1  0.78317408  0.61161689  0.69971237  1
  O  O149  1  0.09450335  0.88838311  0.80028763  1
  O  O150  1  0.89479098  0.69971237  0.88838311  1
  O  O151  1  0.48288646  0.80028763  0.61161689  1
  O  O152  1  0.14359815  0.60875376  0.34830939  1
  O  O153  1  0.10066129  0.89124624  0.15169061  1
  O  O154  1  0.25235191  0.34830939  0.89124624  1
  O  O155  1  0.49190753  0.15169061  0.60875376  1
  O  O156  1  0.85640185  0.39124624  0.65169061  1
  O  O157  1  0.89933871  0.10875376  0.84830939  1
  O  O158  1  0.74764809  0.65169061  0.10875376  1
  O  O159  1  0.50809247  0.84830939  0.39124624  1
