# generated using pymatgen
data_Tm11Ge10
_symmetry_space_group_name_H-M   'P 1'
_cell_length_a   11.12893855
_cell_length_b   11.12893855
_cell_length_c   11.12893855
_cell_angle_alpha   121.89800445
_cell_angle_beta   121.89800445
_cell_angle_gamma   86.74284118
_symmetry_Int_Tables_number   1
_chemical_formula_structural   Tm11Ge10
_chemical_formula_sum   'Tm22 Ge20'
_cell_volume   945.02208966
_cell_formula_units_Z   2
loop_
 _symmetry_equiv_pos_site_id
 _symmetry_equiv_pos_as_xyz
  1  'x, y, z'
loop_
 _atom_site_type_symbol
 _atom_site_label
 _atom_site_symmetry_multiplicity
 _atom_site_fract_x
 _atom_site_fract_y
 _atom_site_fract_z
 _atom_site_occupancy
  Tm  Tm0  1  0.81000500  0.06252600  0.25252100  1
  Tm  Tm1  1  0.81000500  0.55748400  0.74747900  1
  Tm  Tm2  1  0.06252600  0.81000500  0.25252100  1
  Tm  Tm3  1  0.55748400  0.81000500  0.74747900  1
  Tm  Tm4  1  0.18999500  0.93747400  0.74747900  1
  Tm  Tm5  1  0.18999500  0.44251600  0.25252100  1
  Tm  Tm6  1  0.93747400  0.18999500  0.74747900  1
  Tm  Tm7  1  0.44251600  0.18999500  0.25252100  1
  Tm  Tm8  1  0.17679500  0.17679500  0.35359000  1
  Tm  Tm9  1  0.82320500  0.82320500  0.64641000  1
  Tm  Tm10  1  0.17679500  0.82320500  0.00000000  1
  Tm  Tm11  1  0.82320500  0.17679500  0.00000000  1
  Tm  Tm12  1  0.66035700  0.66035700  0.00000000  1
  Tm  Tm13  1  0.33964300  0.33964300  0.00000000  1
  Tm  Tm14  1  0.60276700  0.92662600  0.32385900  1
  Tm  Tm15  1  0.60276700  0.27890900  0.67614100  1
  Tm  Tm16  1  0.92662600  0.60276700  0.32385900  1
  Tm  Tm17  1  0.27890900  0.60276700  0.67614100  1
  Tm  Tm18  1  0.39723300  0.07337400  0.67614100  1
  Tm  Tm19  1  0.39723300  0.72109100  0.32385900  1
  Tm  Tm20  1  0.07337400  0.39723300  0.67614100  1
  Tm  Tm21  1  0.72109100  0.39723300  0.32385900  1
  Ge  Ge22  1  0.36099100  0.00000000  0.36099100  1
  Ge  Ge23  1  0.63900900  0.00000000  0.63900900  1
  Ge  Ge24  1  0.00000000  0.63900900  0.63900900  1
  Ge  Ge25  1  0.00000000  0.36099100  0.36099100  1
  Ge  Ge26  1  0.88517200  0.88517200  0.00000000  1
  Ge  Ge27  1  0.11482800  0.11482800  0.00000000  1
  Ge  Ge28  1  0.37902000  0.37902000  0.75804100  1
  Ge  Ge29  1  0.62098000  0.62098000  0.24195900  1
  Ge  Ge30  1  0.37902000  0.62098000  0.00000000  1
  Ge  Ge31  1  0.62098000  0.37902000  0.00000000  1
  Ge  Ge32  1  0.75000000  0.25000000  0.50000000  1
  Ge  Ge33  1  0.25000000  0.75000000  0.50000000  1
  Ge  Ge34  1  0.89053000  0.89053000  0.41970000  1
  Ge  Ge35  1  0.47083000  0.47083000  0.58030000  1
  Ge  Ge36  1  0.89053000  0.47083000  0.00000000  1
  Ge  Ge37  1  0.47083000  0.89053000  0.00000000  1
  Ge  Ge38  1  0.10947000  0.10947000  0.58030000  1
  Ge  Ge39  1  0.52917000  0.52917000  0.41970000  1
  Ge  Ge40  1  0.10947000  0.52917000  0.00000000  1
  Ge  Ge41  1  0.52917000  0.10947000  0.00000000  1
