# generated using pymatgen
data_K3Rb5Te4H24(SO10)4
_symmetry_space_group_name_H-M   'P 1'
_cell_length_a   6.65884900
_cell_length_b   11.53296809
_cell_length_c   13.79215999
_cell_angle_alpha   73.30788353
_cell_angle_beta   89.92166785
_cell_angle_gamma   89.92804844
_symmetry_Int_Tables_number   1
_chemical_formula_structural   K3Rb5Te4H24(SO10)4
_chemical_formula_sum   'K3 Rb5 Te4 H24 S4 O40'
_cell_volume   1014.55341489
_cell_formula_units_Z   1
loop_
 _symmetry_equiv_pos_site_id
 _symmetry_equiv_pos_as_xyz
  1  'x, y, z'
loop_
 _atom_site_type_symbol
 _atom_site_label
 _atom_site_symmetry_multiplicity
 _atom_site_fract_x
 _atom_site_fract_y
 _atom_site_fract_z
 _atom_site_occupancy
  K  K0  1  0.47815100  0.15266700  0.14402200  1
  K  K1  1  0.97826800  0.34715100  0.85597200  1
  K  K2  1  0.52155900  0.84693600  0.85600700  1
  Rb  Rb3  1  0.01803800  0.65245400  0.14437400  1
  Rb  Rb4  1  0.49678800  0.39798800  0.35915400  1
  Rb  Rb5  1  0.99677100  0.10169800  0.64115700  1
  Rb  Rb6  1  0.50321300  0.60169400  0.64120800  1
  Rb  Rb7  1  0.00346700  0.89876400  0.35902500  1
  Te  Te8  1  0.00021400  0.49972600  0.50058700  1
  Te  Te9  1  0.50000800  0.99997800  0.50005600  1
  Te  Te10  1  0.00015600  0.00121000  0.99964700  1
  Te  Te11  1  0.49921000  0.49973200  0.99908200  1
  H  H12  1  0.25611700  0.36525900  0.61130200  1
  H  H13  1  0.75587100  0.13416100  0.38927800  1
  H  H14  1  0.74445900  0.63472300  0.38991200  1
  H  H15  1  0.24411100  0.86568500  0.61077400  1
  H  H16  1  0.32364900  0.09685100  0.92222100  1
  H  H17  1  0.82251600  0.40291000  0.07727000  1
  H  H18  1  0.67688100  0.90418600  0.07716200  1
  H  H19  1  0.17608700  0.59589500  0.92111900  1
  H  H20  1  0.94186900  0.14167100  0.10344600  1
  H  H21  1  0.44221000  0.35758800  0.89641400  1
  H  H22  1  0.05800400  0.85892700  0.89679300  1
  H  H23  1  0.55616600  0.64125600  0.10290100  1
  H  H24  1  0.00786700  0.32850500  0.41897700  1
  H  H25  1  0.50768100  0.17147200  0.58113700  1
  H  H26  1  0.99203000  0.67162700  0.58143300  1
  H  H27  1  0.49196100  0.82859400  0.41900100  1
  H  H28  1  0.78792600  0.36644000  0.63591500  1
  H  H29  1  0.28828200  0.13329500  0.36439200  1
  H  H30  1  0.21243000  0.63331200  0.36528500  1
  H  H31  1  0.71174400  0.86662200  0.63564700  1
  H  H32  1  0.24365300  0.91182900  0.13799200  1
  H  H33  1  0.74380500  0.58912200  0.86132500  1
  H  H34  1  0.75644700  0.08965800  0.86151700  1
  H  H35  1  0.25650000  0.40976000  0.13805900  1
  S  S36  1  0.98936400  0.26412200  0.24584500  1
  S  S37  1  0.48956400  0.23429900  0.75434300  1
  S  S38  1  0.01046900  0.73448500  0.75431900  1
  S  S39  1  0.51200600  0.76621500  0.24647300  1
  O  O40  1  0.26461800  0.43235800  0.54573600  1
  O  O41  1  0.76452300  0.06712800  0.45494800  1
  O  O42  1  0.73570500  0.56687000  0.45503200  1
  O  O43  1  0.23542700  0.93284600  0.54524700  1
  O  O44  1  0.23686400  0.10495500  0.97936900  1
  O  O45  1  0.73666900  0.39611500  0.01952100  1
  O  O46  1  0.76361100  0.89701600  0.01968900  1
  O  O47  1  0.26319800  0.60385800  0.97808100  1
  O  O48  1  0.88140700  0.43441000  0.63529400  1
  O  O49  1  0.38213000  0.06531400  0.36521200  1
  O  O50  1  0.12008800  0.56468600  0.36628700  1
  O  O51  1  0.61797300  0.93463100  0.63489800  1
  O  O52  1  0.49962900  0.88991400  0.17144000  1
  O  O53  1  0.99942200  0.60998700  0.82831600  1
  O  O54  1  0.50082600  0.10992900  0.82850900  1
  O  O55  1  0.00040900  0.38777000  0.17078600  1
  O  O56  1  0.12113500  0.26219000  0.33499600  1
  O  O57  1  0.62131800  0.23738200  0.66478300  1
  O  O58  1  0.87864100  0.73763100  0.66493700  1
  O  O59  1  0.37704600  0.76294200  0.33491500  1
  O  O60  1  0.09369900  0.91723700  0.13676400  1
  O  O61  1  0.59375900  0.58491500  0.86231600  1
  O  O62  1  0.90661800  0.08643100  0.86278500  1
  O  O63  1  0.40647600  0.41463300  0.13643400  1
  O  O64  1  0.06563800  0.17102900  0.19961400  1
  O  O65  1  0.56578900  0.32657700  0.80135700  1
  O  O66  1  0.93414200  0.82663800  0.80162100  1
  O  O67  1  0.44107700  0.67239400  0.19984100  1
  O  O68  1  0.91856400  0.35168900  0.46896800  1
  O  O69  1  0.41814200  0.14826600  0.53134600  1
  O  O70  1  0.08142800  0.64807700  0.53161200  1
  O  O71  1  0.58168300  0.85169300  0.46874900  1
  O  O72  1  0.85703200  0.11927100  0.05108100  1
  O  O73  1  0.35717700  0.38108800  0.94832900  1
  O  O74  1  0.14318000  0.88294300  0.94820800  1
  O  O75  1  0.63891500  0.61903800  0.04964700  1
  O  O76  1  0.77684400  0.23900200  0.27874200  1
  O  O77  1  0.27704500  0.26002200  0.72181800  1
  O  O78  1  0.22289800  0.76018900  0.72149900  1
  O  O79  1  0.72374600  0.74246500  0.28073200  1
