# generated using pymatgen
data_TbUTe6
_symmetry_space_group_name_H-M   'P 1'
_cell_length_a   12.90674326
_cell_length_b   12.90674326
_cell_length_c   4.38883700
_cell_angle_alpha   90.00000000
_cell_angle_beta   90.00000000
_cell_angle_gamma   160.43018524
_symmetry_Int_Tables_number   1
_chemical_formula_structural   TbUTe6
_chemical_formula_sum   'Tb1 U1 Te6'
_cell_volume   244.88914849
_cell_formula_units_Z   1
loop_
 _symmetry_equiv_pos_site_id
 _symmetry_equiv_pos_as_xyz
  1  'x, y, z'
loop_
 _atom_site_type_symbol
 _atom_site_label
 _atom_site_symmetry_multiplicity
 _atom_site_fract_x
 _atom_site_fract_y
 _atom_site_fract_z
 _atom_site_occupancy
  Tb  Tb0  1  0.16779100  0.83220900  0.50000000  1
  U  U1  1  0.83406300  0.16593700  0.00000000  1
  Te  Te2  1  0.42513500  0.57486500  0.00000000  1
  Te  Te3  1  0.57209700  0.42790300  0.50000000  1
  Te  Te4  1  0.70729200  0.29270800  0.00000000  1
  Te  Te5  1  0.29675000  0.70325000  0.50000000  1
  Te  Te6  1  0.07163300  0.92836700  0.00000000  1
  Te  Te7  1  0.92524000  0.07476000  0.50000000  1
