# generated using pymatgen
data_Gd3InS6
_symmetry_space_group_name_H-M   'P 1'
_cell_length_a   3.89898600
_cell_length_b   13.62867200
_cell_length_c   16.61123700
_cell_angle_alpha   90.00000000
_cell_angle_beta   90.00000000
_cell_angle_gamma   90.00000000
_symmetry_Int_Tables_number   1
_chemical_formula_structural   Gd3InS6
_chemical_formula_sum   'Gd12 In4 S24'
_cell_volume   882.68793374
_cell_formula_units_Z   4
loop_
 _symmetry_equiv_pos_site_id
 _symmetry_equiv_pos_as_xyz
  1  'x, y, z'
loop_
 _atom_site_type_symbol
 _atom_site_label
 _atom_site_symmetry_multiplicity
 _atom_site_fract_x
 _atom_site_fract_y
 _atom_site_fract_z
 _atom_site_occupancy
  Gd  Gd0  1  0.50000000  0.04010100  0.27662800  1
  Gd  Gd1  1  0.50000000  0.95989900  0.72337200  1
  Gd  Gd2  1  0.00000000  0.54010100  0.22337200  1
  Gd  Gd3  1  0.00000000  0.45989900  0.77662800  1
  Gd  Gd4  1  0.50000000  0.81177100  0.14565800  1
  Gd  Gd5  1  0.50000000  0.18822900  0.85434200  1
  Gd  Gd6  1  0.00000000  0.31177100  0.35434200  1
  Gd  Gd7  1  0.00000000  0.68822900  0.64565800  1
  Gd  Gd8  1  0.50000000  0.25111500  0.10657800  1
  Gd  Gd9  1  0.50000000  0.74888500  0.89342200  1
  Gd  Gd10  1  0.00000000  0.75111500  0.39342200  1
  Gd  Gd11  1  0.00000000  0.24888500  0.60657800  1
  In  In12  1  0.50000000  0.50000000  0.50000000  1
  In  In13  1  0.00000000  0.00000000  0.00000000  1
  In  In14  1  0.50000000  0.50000000  0.00000000  1
  In  In15  1  0.00000000  0.00000000  0.50000000  1
  S  S16  1  0.50000000  0.61307900  0.11681600  1
  S  S17  1  0.50000000  0.38692100  0.88318400  1
  S  S18  1  0.00000000  0.11307900  0.38318400  1
  S  S19  1  0.00000000  0.88692100  0.61681600  1
  S  S20  1  0.50000000  0.90386600  0.41406500  1
  S  S21  1  0.50000000  0.09613400  0.58593500  1
  S  S22  1  0.00000000  0.40386600  0.08593500  1
  S  S23  1  0.00000000  0.59613400  0.91406500  1
  S  S24  1  0.50000000  0.68189800  0.28676700  1
  S  S25  1  0.50000000  0.31810200  0.71323300  1
  S  S26  1  0.00000000  0.18189800  0.21323300  1
  S  S27  1  0.00000000  0.81810200  0.78676700  1
  S  S28  1  0.50000000  0.30850500  0.47949300  1
  S  S29  1  0.50000000  0.69149500  0.52050700  1
  S  S30  1  0.00000000  0.80850500  0.02050700  1
  S  S31  1  0.00000000  0.19149500  0.97949300  1
  S  S32  1  0.50000000  0.02090100  0.10508300  1
  S  S33  1  0.50000000  0.97909900  0.89491700  1
  S  S34  1  0.00000000  0.52090100  0.39491700  1
  S  S35  1  0.00000000  0.47909900  0.60508300  1
  S  S36  1  0.50000000  0.38891500  0.25342600  1
  S  S37  1  0.50000000  0.61108500  0.74657400  1
  S  S38  1  0.00000000  0.88891500  0.24657400  1
  S  S39  1  0.00000000  0.11108500  0.75342600  1
