# generated using pymatgen
data_LiMoO2
_symmetry_space_group_name_H-M   'P 1'
_cell_length_a   5.27366250
_cell_length_b   5.27366250
_cell_length_c   5.27366260
_cell_angle_alpha   35.45785803
_cell_angle_beta   35.45785803
_cell_angle_gamma   35.45785336
_symmetry_Int_Tables_number   1
_chemical_formula_structural   LiMoO2
_chemical_formula_sum   'Li1 Mo1 O2'
_cell_volume   44.10459846
_cell_formula_units_Z   1
loop_
 _symmetry_equiv_pos_site_id
 _symmetry_equiv_pos_as_xyz
  1  'x, y, z'
loop_
 _atom_site_type_symbol
 _atom_site_label
 _atom_site_symmetry_multiplicity
 _atom_site_fract_x
 _atom_site_fract_y
 _atom_site_fract_z
 _atom_site_occupancy
  Li  Li0  1  0.50000000  0.50000000  0.50000000  1
  Mo  Mo1  1  0.00000000  0.00000000  0.00000000  1
  O  O2  1  0.25512700  0.25512700  0.25512700  1
  O  O3  1  0.74487300  0.74487300  0.74487300  1
