# generated using pymatgen
data_K4Zr6FeBr18
_symmetry_space_group_name_H-M   'P 1'
_cell_length_a   10.66217571
_cell_length_b   10.79985970
_cell_length_c   10.90768696
_cell_angle_alpha   118.52822795
_cell_angle_beta   100.03339558
_cell_angle_gamma   103.75203847
_symmetry_Int_Tables_number   1
_chemical_formula_structural   K4Zr6FeBr18
_chemical_formula_sum   'K4 Zr6 Fe1 Br18'
_cell_volume   1009.11023720
_cell_formula_units_Z   1
loop_
 _symmetry_equiv_pos_site_id
 _symmetry_equiv_pos_as_xyz
  1  'x, y, z'
loop_
 _atom_site_type_symbol
 _atom_site_label
 _atom_site_symmetry_multiplicity
 _atom_site_fract_x
 _atom_site_fract_y
 _atom_site_fract_z
 _atom_site_occupancy
  K  K0  1  0.65360344  0.53864934  0.22787950  1
  K  K1  1  0.34639656  0.46135066  0.77212050  1
  K  K2  1  0.68693519  0.22391985  0.56334380  1
  K  K3  1  0.31306481  0.77608015  0.43665620  1
  Zr  Zr4  1  0.15244288  0.05729908  0.23438708  1
  Zr  Zr5  1  0.84755712  0.94270092  0.76561292  1
  Zr  Zr6  1  0.85851602  0.12841712  0.13501042  1
  Zr  Zr7  1  0.14148398  0.87158288  0.86498958  1
  Zr  Zr8  1  0.14764175  0.24296618  0.04598960  1
  Zr  Zr9  1  0.85235825  0.75703382  0.95401040  1
  Fe  Fe10  1  0.00000000  0.00000000  0.00000000  1
  Br  Br11  1  0.00707599  0.40850361  0.19672082  1
  Br  Br12  1  0.99292401  0.59149639  0.80327918  1
  Br  Br13  1  0.32761564  0.33301787  0.31060534  1
  Br  Br14  1  0.67238436  0.66698213  0.68939466  1
  Br  Br15  1  0.32208011  0.52419731  0.10039715  1
  Br  Br16  1  0.67791989  0.47580269  0.89960285  1
  Br  Br17  1  0.00390868  0.79628633  0.20872424  1
  Br  Br18  1  0.99609132  0.20371367  0.79127576  1
  Br  Br19  1  0.70091604  0.27629320  0.28891563  1
  Br  Br20  1  0.29908396  0.72370680  0.71108437  1
  Br  Br21  1  0.31643335  0.12731533  0.90336539  1
  Br  Br22  1  0.68356665  0.87268467  0.09663461  1
  Br  Br23  1  0.01359663  0.20431410  0.40737245  1
  Br  Br24  1  0.98640337  0.79568590  0.59262755  1
  Br  Br25  1  0.32011953  0.92295626  0.10984288  1
  Br  Br26  1  0.67988047  0.07704374  0.89015712  1
  Br  Br27  1  0.33287581  0.12109629  0.50355699  1
  Br  Br28  1  0.66712419  0.87890371  0.49644301  1
