# generated using pymatgen
data_TmSbIr
_symmetry_space_group_name_H-M   'P 1'
_cell_length_a   4.47007300
_cell_length_b   7.11044400
_cell_length_c   7.97878200
_cell_angle_alpha   90.00000000
_cell_angle_beta   90.00000000
_cell_angle_gamma   90.00000000
_symmetry_Int_Tables_number   1
_chemical_formula_structural   TmSbIr
_chemical_formula_sum   'Tm4 Sb4 Ir4'
_cell_volume   253.59923270
_cell_formula_units_Z   4
loop_
 _symmetry_equiv_pos_site_id
 _symmetry_equiv_pos_as_xyz
  1  'x, y, z'
loop_
 _atom_site_type_symbol
 _atom_site_label
 _atom_site_symmetry_multiplicity
 _atom_site_fract_x
 _atom_site_fract_y
 _atom_site_fract_z
 _atom_site_occupancy
  Tm  Tm0  1  0.25000000  0.51218800  0.18843400  1
  Tm  Tm1  1  0.75000000  0.48781200  0.81156600  1
  Tm  Tm2  1  0.75000000  0.98781200  0.68843400  1
  Tm  Tm3  1  0.25000000  0.01218800  0.31156600  1
  Sb  Sb4  1  0.25000000  0.67474500  0.58838700  1
  Sb  Sb5  1  0.75000000  0.32525500  0.41161300  1
  Sb  Sb6  1  0.75000000  0.82525500  0.08838700  1
  Sb  Sb7  1  0.25000000  0.17474500  0.91161300  1
  Ir  Ir8  1  0.25000000  0.78608200  0.90871200  1
  Ir  Ir9  1  0.75000000  0.21391800  0.09128800  1
  Ir  Ir10  1  0.75000000  0.71391800  0.40871200  1
  Ir  Ir11  1  0.25000000  0.28608200  0.59128800  1
