# generated using pymatgen
data_Ba2NdMoO6
_symmetry_space_group_name_H-M   'P 1'
_cell_length_a   6.05896300
_cell_length_b   6.09409459
_cell_length_c   6.10733032
_cell_angle_alpha   119.42647257
_cell_angle_beta   119.08583043
_cell_angle_gamma   90.93624995
_symmetry_Int_Tables_number   1
_chemical_formula_structural   Ba2NdMoO6
_chemical_formula_sum   'Ba2 Nd1 Mo1 O6'
_cell_volume   161.71093299
_cell_formula_units_Z   1
loop_
 _symmetry_equiv_pos_site_id
 _symmetry_equiv_pos_as_xyz
  1  'x, y, z'
loop_
 _atom_site_type_symbol
 _atom_site_label
 _atom_site_symmetry_multiplicity
 _atom_site_fract_x
 _atom_site_fract_y
 _atom_site_fract_z
 _atom_site_occupancy
  Ba  Ba0  1  0.75198600  0.25246700  0.49624200  1
  Ba  Ba1  1  0.24801400  0.74753300  0.50375800  1
  Nd  Nd2  1  0.00000000  0.00000000  0.00000000  1
  Mo  Mo3  1  0.50000000  0.50000000  0.00000000  1
  O  O4  1  0.72803500  0.72598100  0.53278300  1
  O  O5  1  0.27196500  0.27401900  0.46721700  1
  O  O6  1  0.23065700  0.69645100  0.99938600  1
  O  O7  1  0.76934300  0.30354900  0.00061400  1
  O  O8  1  0.69412800  0.77044000  0.98738400  1
  O  O9  1  0.30587200  0.22956000  0.01261600  1
