# generated using pymatgen
data_Tb2MoO6
_symmetry_space_group_name_H-M   'P 1'
_cell_length_a   5.42638176
_cell_length_b   9.98956279
_cell_length_c   9.98956279
_cell_angle_alpha   68.09714485
_cell_angle_beta   75.05331086
_cell_angle_gamma   75.05331098
_symmetry_Int_Tables_number   1
_chemical_formula_structural   Tb2MoO6
_chemical_formula_sum   'Tb8 Mo4 O24'
_cell_volume   477.45681991
_cell_formula_units_Z   4
loop_
 _symmetry_equiv_pos_site_id
 _symmetry_equiv_pos_as_xyz
  1  'x, y, z'
loop_
 _atom_site_type_symbol
 _atom_site_label
 _atom_site_symmetry_multiplicity
 _atom_site_fract_x
 _atom_site_fract_y
 _atom_site_fract_z
 _atom_site_occupancy
  O  O0  1  0.92175348  0.57396308  0.60868597  1
  O  O1  1  0.57824605  0.39131327  0.42603687  1
  O  O2  1  0.07824669  0.42603670  0.39131401  1
  O  O3  1  0.42175412  0.60868652  0.57396312  1
  O  O4  1  0.91680209  0.80892998  0.33687186  1
  O  O5  1  0.58319790  0.66312888  0.19106987  1
  O  O6  1  0.08319773  0.19107091  0.66312877  1
  O  O7  1  0.41680191  0.33687200  0.80892976  1
  O  O8  1  0.36957442  0.88383223  0.32671720  1
  O  O9  1  0.13042582  0.67328336  0.11616683  1
  O  O10  1  0.63042575  0.11616756  0.67328279  1
  O  O11  1  0.86957400  0.32671752  0.88383280  1
  O  O12  1  0.63644760  0.28965234  0.18191556  1
  O  O13  1  0.86355180  0.81808520  0.71034766  1
  O  O14  1  0.36355067  0.71034745  0.81808470  1
  O  O15  1  0.13644801  0.18191569  0.28965196  1
  O  O16  1  0.51511586  0.11065343  0.04864756  1
  O  O17  1  0.98488353  0.95135223  0.88934701  1
  O  O18  1  0.75527418  0.02538695  0.43078538  1
  O  O19  1  0.01511664  0.04864755  0.11065298  1
  O  O20  1  0.25527433  0.43078529  0.02538756  1
  O  O21  1  0.24472600  0.97461284  0.56921461  1
  O  O22  1  0.74472584  0.56921449  0.97461243  1
  O  O23  1  0.48488432  0.88934636  0.95135243  1
  Mo  Mo24  1  0.05988303  0.01115046  0.29621768  1
  Mo  Mo25  1  0.44011693  0.70378159  0.98884959  1
  Mo  Mo26  1  0.94011714  0.98884933  0.70378231  1
  Mo  Mo27  1  0.55988324  0.29621820  0.01115040  1
  Tb  Tb28  1  0.62074265  0.78429985  0.55255514  1
  Tb  Tb29  1  0.12074222  0.55255549  0.78430057  1
  Tb  Tb30  1  0.37925752  0.21569993  0.44744485  1
  Tb  Tb31  1  0.87925795  0.44744429  0.21569942  1
  Tb  Tb32  1  0.74999924  0.86458126  0.13541952  1
  Tb  Tb33  1  0.25000094  0.13541853  0.86458146  1
  Tb  Tb34  1  0.75000070  0.39263504  0.60736543  1
  Tb  Tb35  1  0.24999947  0.60736475  0.39263556  1
