# generated using pymatgen
data_Cs12Sn8GeO4
_symmetry_space_group_name_H-M   'P 1'
_cell_length_a   13.94900065
_cell_length_b   13.76564537
_cell_length_c   24.94928206
_cell_angle_alpha   90.00000000
_cell_angle_beta   90.00000000
_cell_angle_gamma   118.92378141
_symmetry_Int_Tables_number   1
_chemical_formula_structural   Cs12Sn8GeO4
_chemical_formula_sum   'Cs48 Sn32 Ge4 O16'
_cell_volume   4193.11448930
_cell_formula_units_Z   4
loop_
 _symmetry_equiv_pos_site_id
 _symmetry_equiv_pos_as_xyz
  1  'x, y, z'
loop_
 _atom_site_type_symbol
 _atom_site_label
 _atom_site_symmetry_multiplicity
 _atom_site_fract_x
 _atom_site_fract_y
 _atom_site_fract_z
 _atom_site_occupancy
  Cs  Cs0  1  0.90928030  0.44387073  0.60562925  1
  Cs  Cs1  1  0.09071970  0.05612927  0.10562925  1
  Cs  Cs2  1  0.09071970  0.55612927  0.39437075  1
  Cs  Cs3  1  0.90928030  0.94387073  0.89437075  1
  Cs  Cs4  1  0.91257235  0.22899939  0.84268444  1
  Cs  Cs5  1  0.08742765  0.27100061  0.34268444  1
  Cs  Cs6  1  0.08742765  0.77100061  0.15731556  1
  Cs  Cs7  1  0.91257235  0.72899939  0.65731556  1
  Cs  Cs8  1  0.87581195  0.37830634  0.11596275  1
  Cs  Cs9  1  0.12418805  0.12169366  0.61596275  1
  Cs  Cs10  1  0.12418805  0.62169366  0.88403725  1
  Cs  Cs11  1  0.87581195  0.87830634  0.38403725  1
  Cs  Cs12  1  0.85863615  0.13731968  0.69168822  1
  Cs  Cs13  1  0.14136385  0.36268032  0.19168822  1
  Cs  Cs14  1  0.14136385  0.86268032  0.30831178  1
  Cs  Cs15  1  0.85863615  0.63731968  0.80831178  1
  Cs  Cs16  1  0.83105056  0.40815308  0.93129991  1
  Cs  Cs17  1  0.16894944  0.09184692  0.43129991  1
  Cs  Cs18  1  0.16894944  0.59184692  0.06870009  1
  Cs  Cs19  1  0.83105056  0.90815308  0.56870009  1
  Cs  Cs20  1  0.82898491  0.20910444  0.27434886  1
  Cs  Cs21  1  0.17101509  0.29089556  0.77434886  1
  Cs  Cs22  1  0.17101509  0.79089556  0.72565114  1
  Cs  Cs23  1  0.82898491  0.70910444  0.22565114  1
  Cs  Cs24  1  0.80224128  0.98573963  0.16189332  1
  Cs  Cs25  1  0.19775872  0.51426037  0.66189332  1
  Cs  Cs26  1  0.19775872  0.01426037  0.83810668  1
  Cs  Cs27  1  0.80224128  0.48573963  0.33810668  1
  Cs  Cs28  1  0.73011836  0.33631952  0.74548649  1
  Cs  Cs29  1  0.26988164  0.16368048  0.24548649  1
  Cs  Cs30  1  0.26988164  0.66368048  0.25451351  1
  Cs  Cs31  1  0.73011836  0.83631952  0.75451351  1
  Cs  Cs32  1  0.49670742  0.21560047  0.52508919  1
  Cs  Cs33  1  0.50329258  0.28439953  0.02508919  1
  Cs  Cs34  1  0.50329258  0.78439953  0.47491081  1
  Cs  Cs35  1  0.49670742  0.71560047  0.97491081  1
  Cs  Cs36  1  0.47836496  0.40029276  0.87606782  1
  Cs  Cs37  1  0.52163504  0.09970724  0.37606782  1
  Cs  Cs38  1  0.52163504  0.59970724  0.12393218  1
  Cs  Cs39  1  0.47836496  0.90029276  0.62393218  1
  Cs  Cs40  1  0.37977051  0.15618710  0.70151013  1
  Cs  Cs41  1  0.62022949  0.34381290  0.20151013  1
  Cs  Cs42  1  0.62022949  0.84381290  0.29848987  1
  Cs  Cs43  1  0.37977051  0.65618710  0.79848987  1
  Cs  Cs44  1  0.27963878  0.45444072  0.50579229  1
  Cs  Cs45  1  0.72036122  0.04555928  0.00579229  1
  Cs  Cs46  1  0.72036122  0.54555928  0.49420771  1
  Cs  Cs47  1  0.27963878  0.95444072  0.99420771  1
  Sn  Sn48  1  0.95972641  0.21794380  0.50378960  1
  Sn  Sn49  1  0.04027359  0.28205620  0.00378960  1
  Sn  Sn50  1  0.04027359  0.78205620  0.49621040  1
  Sn  Sn51  1  0.95972641  0.71794380  0.99621040  1
  Sn  Sn52  1  0.81202902  0.79547680  0.04576159  1
  Sn  Sn53  1  0.18797098  0.70452320  0.54576159  1
  Sn  Sn54  1  0.18797098  0.20452320  0.95423841  1
  Sn  Sn55  1  0.81202902  0.29547680  0.45423841  1
  Sn  Sn56  1  0.72795279  0.12987589  0.54268011  1
  Sn  Sn57  1  0.27204721  0.37012411  0.04268011  1
  Sn  Sn58  1  0.27204721  0.87012411  0.45731989  1
  Sn  Sn59  1  0.72795279  0.62987589  0.95731989  1
  Sn  Sn60  1  0.23015083  0.43487854  0.93503479  1
  Sn  Sn61  1  0.76984917  0.06512146  0.43503479  1
  Sn  Sn62  1  0.76984917  0.56512146  0.06496521  1
  Sn  Sn63  1  0.23015083  0.93487854  0.56496521  1
  Sn  Sn64  1  0.54795847  0.14023308  0.87421109  1
  Sn  Sn65  1  0.45204153  0.35976692  0.37421109  1
  Sn  Sn66  1  0.45204153  0.85976692  0.12578891  1
  Sn  Sn67  1  0.54795847  0.64023308  0.62578891  1
  Sn  Sn68  1  0.52188655  0.00939950  0.77164565  1
  Sn  Sn69  1  0.47811345  0.49060050  0.27164565  1
  Sn  Sn70  1  0.47811345  0.99060050  0.22835435  1
  Sn  Sn71  1  0.52188655  0.50939950  0.72835435  1
  Sn  Sn72  1  0.62606247  0.96998367  0.86505622  1
  Sn  Sn73  1  0.37393753  0.53001633  0.36505622  1
  Sn  Sn74  1  0.37393753  0.03001633  0.13494378  1
  Sn  Sn75  1  0.62606247  0.46998367  0.63494378  1
  Sn  Sn76  1  0.39182531  0.89987926  0.86966991  1
  Sn  Sn77  1  0.60817469  0.60012074  0.36966991  1
  Sn  Sn78  1  0.60817469  0.10012074  0.13033009  1
  Sn  Sn79  1  0.39182531  0.39987926  0.63033009  1
  Ge  Ge80  1  0.99131807  0.00873863  0.25920669  1
  Ge  Ge81  1  0.00868193  0.49126137  0.75920669  1
  Ge  Ge82  1  0.00868193  0.99126137  0.74079331  1
  Ge  Ge83  1  0.99131807  0.50873863  0.24079331  1
  O  O84  1  0.97692256  0.36250184  0.72670309  1
  O  O85  1  0.02307744  0.13749816  0.22670309  1
  O  O86  1  0.02307744  0.63749816  0.27329691  1
  O  O87  1  0.97692256  0.86250184  0.77329691  1
  O  O88  1  0.96439356  0.06976937  0.78225692  1
  O  O89  1  0.03560644  0.43023063  0.28225692  1
  O  O90  1  0.03560644  0.93023063  0.21774308  1
  O  O91  1  0.96439356  0.56976937  0.71774308  1
  O  O92  1  0.93495952  0.46246681  0.82223747  1
  O  O93  1  0.06504048  0.03753319  0.32223747  1
  O  O94  1  0.06504048  0.53753319  0.17776253  1
  O  O95  1  0.93495952  0.96246681  0.67776253  1
  O  O96  1  0.84504209  0.42637584  0.23067106  1
  O  O97  1  0.15495791  0.07362416  0.73067106  1
  O  O98  1  0.15495791  0.57362416  0.76932894  1
  O  O99  1  0.84504209  0.92637584  0.26932894  1
