# generated using pymatgen
data_V10(SiGe)3
_symmetry_space_group_name_H-M   'P 1'
_cell_length_a   9.49253527
_cell_length_b   7.14415546
_cell_length_c   7.11608228
_cell_angle_alpha   83.46641296
_cell_angle_beta   48.39324332
_cell_angle_gamma   48.14034372
_symmetry_Int_Tables_number   1
_chemical_formula_structural   V10(SiGe)3
_chemical_formula_sum   'V10 Si3 Ge3'
_cell_volume   216.72039909
_cell_formula_units_Z   1
loop_
 _symmetry_equiv_pos_site_id
 _symmetry_equiv_pos_as_xyz
  1  'x, y, z'
loop_
 _atom_site_type_symbol
 _atom_site_label
 _atom_site_symmetry_multiplicity
 _atom_site_fract_x
 _atom_site_fract_y
 _atom_site_fract_z
 _atom_site_occupancy
  V  V0  1  0.76983200  0.42394800  0.57605200  1
  V  V1  1  0.22876400  0.57881900  0.42118100  1
  V  V2  1  0.72975600  0.92526100  0.07473900  1
  V  V3  1  0.26832500  0.07234700  0.92765300  1
  V  V4  1  0.92526100  0.72975600  0.27024400  1
  V  V5  1  0.07234700  0.26832500  0.73167500  1
  V  V6  1  0.42394800  0.76983200  0.23016800  1
  V  V7  1  0.57881900  0.22876400  0.77123600  1
  V  V8  1  0.75409300  0.24986400  0.24590700  1
  V  V9  1  0.24986400  0.75409300  0.75013600  1
  Si  Si10  1  0.66566600  0.66566600  0.33433400  1
  Si  Si11  1  0.16539100  0.83395000  0.16605000  1
  Si  Si12  1  0.83395000  0.16539100  0.83460900  1
  Ge  Ge13  1  0.24997100  0.24997100  0.25002900  1
  Ge  Ge14  1  0.74997100  0.74997100  0.75002900  1
  Ge  Ge15  1  0.33404200  0.33404200  0.66595800  1
