# generated using pymatgen
data_Ba2H4Pd
_symmetry_space_group_name_H-M   'P 1'
_cell_length_a   5.81347600
_cell_length_b   8.14331500
_cell_length_c   10.28488900
_cell_angle_alpha   90.00000000
_cell_angle_beta   90.00000000
_cell_angle_gamma   90.00000000
_symmetry_Int_Tables_number   1
_chemical_formula_structural   Ba2H4Pd
_chemical_formula_sum   'Ba8 H16 Pd4'
_cell_volume   486.89658368
_cell_formula_units_Z   4
loop_
 _symmetry_equiv_pos_site_id
 _symmetry_equiv_pos_as_xyz
  1  'x, y, z'
loop_
 _atom_site_type_symbol
 _atom_site_label
 _atom_site_symmetry_multiplicity
 _atom_site_fract_x
 _atom_site_fract_y
 _atom_site_fract_z
 _atom_site_occupancy
  Ba  Ba0  1  0.25000000  0.85329300  0.40540500  1
  Ba  Ba1  1  0.25000000  0.35329300  0.09459500  1
  Ba  Ba2  1  0.75000000  0.14670700  0.59459500  1
  Ba  Ba3  1  0.75000000  0.64670700  0.90540500  1
  Ba  Ba4  1  0.25000000  0.01090000  0.83266000  1
  Ba  Ba5  1  0.25000000  0.51090000  0.66734000  1
  Ba  Ba6  1  0.75000000  0.98910000  0.16734000  1
  Ba  Ba7  1  0.75000000  0.48910000  0.33266000  1
  H  H8  1  0.25000000  0.17460000  0.57957500  1
  H  H9  1  0.25000000  0.67460000  0.92042500  1
  H  H10  1  0.75000000  0.82540000  0.42042500  1
  H  H11  1  0.75000000  0.32540000  0.07957500  1
  H  H12  1  0.25000000  0.47601300  0.39234700  1
  H  H13  1  0.25000000  0.97601300  0.10765300  1
  H  H14  1  0.75000000  0.52398700  0.60765300  1
  H  H15  1  0.75000000  0.02398700  0.89234700  1
  H  H16  1  0.99398700  0.17926200  0.34445300  1
  H  H17  1  0.50601300  0.67926200  0.15554700  1
  H  H18  1  0.49398700  0.82073800  0.65554700  1
  H  H19  1  0.00601300  0.32073800  0.84445300  1
  H  H20  1  0.00601300  0.82073800  0.65554700  1
  H  H21  1  0.49398700  0.32073800  0.84445300  1
  H  H22  1  0.50601300  0.17926200  0.34445300  1
  H  H23  1  0.99398700  0.67926200  0.15554700  1
  Pd  Pd24  1  0.25000000  0.25838500  0.41748000  1
  Pd  Pd25  1  0.25000000  0.75838500  0.08252000  1
  Pd  Pd26  1  0.75000000  0.74161500  0.58252000  1
  Pd  Pd27  1  0.75000000  0.24161500  0.91748000  1
