# generated using pymatgen
data_Sr18Co14O45
_symmetry_space_group_name_H-M   'P 1'
_cell_length_a   10.08125952
_cell_length_b   10.08125952
_cell_length_c   11.86308991
_cell_angle_alpha   87.49753448
_cell_angle_beta   87.49753448
_cell_angle_gamma   56.71343940
_symmetry_Int_Tables_number   1
_chemical_formula_structural   Sr18Co14O45
_chemical_formula_sum   'Sr18 Co14 O45'
_cell_volume   1006.61936919
_cell_formula_units_Z   1
loop_
 _symmetry_equiv_pos_site_id
 _symmetry_equiv_pos_as_xyz
  1  'x, y, z'
loop_
 _atom_site_type_symbol
 _atom_site_label
 _atom_site_symmetry_multiplicity
 _atom_site_fract_x
 _atom_site_fract_y
 _atom_site_fract_z
 _atom_site_occupancy
  Sr  Sr0  1  0.11446200  0.77125000  0.73032600  1
  Sr  Sr1  1  0.78465700  0.42359300  0.07428900  1
  Sr  Sr2  1  0.45800700  0.09283800  0.40989600  1
  Sr  Sr3  1  0.65243600  0.34756400  0.50000000  1
  Sr  Sr4  1  0.30228100  0.02411100  0.82818600  1
  Sr  Sr5  1  0.97588900  0.69771900  0.17181400  1
  Sr  Sr6  1  0.22875000  0.88553800  0.26967400  1
  Sr  Sr7  1  0.90716200  0.54199300  0.59010400  1
  Sr  Sr8  1  0.57640700  0.21534300  0.92571100  1
  Sr  Sr9  1  0.22084600  0.55235200  0.45232800  1
  Sr  Sr10  1  0.89468500  0.21893800  0.78562100  1
  Sr  Sr11  1  0.56020900  0.87992200  0.12012600  1
  Sr  Sr12  1  0.66155000  0.00069800  0.66705800  1
  Sr  Sr13  1  0.31731300  0.68268700  0.00000000  1
  Sr  Sr14  1  0.99930200  0.33845000  0.33294200  1
  Sr  Sr15  1  0.44764800  0.77915400  0.54767200  1
  Sr  Sr16  1  0.12007800  0.43979100  0.87987400  1
  Sr  Sr17  1  0.78106200  0.10531500  0.21437900  1
  Co  Co18  1  0.27281200  0.26899600  0.63517800  1
  Co  Co19  1  0.93240000  0.93734400  0.96759500  1
  Co  Co20  1  0.59925400  0.59955600  0.30090300  1
  Co  Co21  1  0.73100400  0.72718800  0.36482200  1
  Co  Co22  1  0.40044400  0.40074600  0.69909700  1
  Co  Co23  1  0.06265600  0.06760000  0.03240500  1
  Co  Co24  1  0.13336600  0.13707800  0.56621900  1
  Co  Co25  1  0.81094400  0.79912400  0.90538300  1
  Co  Co26  1  0.46837300  0.47398000  0.23673300  1
  Co  Co27  1  0.86292200  0.86663400  0.43378100  1
  Co  Co28  1  0.52602000  0.53162700  0.76326700  1
  Co  Co29  1  0.20087600  0.18905600  0.09461700  1
  Co  Co30  1  0.33252500  0.33044700  0.16750000  1
  Co  Co31  1  0.66955300  0.66747500  0.83250000  1
  O  O32  1  0.97399000  0.79310100  0.55877500  1
  O  O33  1  0.65836000  0.47688800  0.89079700  1
  O  O34  1  0.34355600  0.14359900  0.22580100  1
  O  O35  1  0.74446000  0.06805400  0.46443400  1
  O  O36  1  0.43409900  0.73828600  0.80765500  1
  O  O37  1  0.10824800  0.41216500  0.15010600  1
  O  O38  1  0.00721000  0.86402400  0.34191300  1
  O  O39  1  0.67693900  0.56002800  0.68842200  1
  O  O40  1  0.34758000  0.23748400  0.01936300  1
  O  O41  1  0.13597600  0.99279000  0.65808700  1
  O  O42  1  0.76251600  0.65242000  0.98063700  1
  O  O43  1  0.43997200  0.32306100  0.31157800  1
  O  O44  1  0.20689900  0.02601000  0.44122500  1
  O  O45  1  0.85640100  0.65644400  0.77419900  1
  O  O46  1  0.52311200  0.34164000  0.10920300  1
  O  O47  1  0.93194600  0.25554000  0.53556600  1
  O  O48  1  0.58783500  0.89175200  0.84989400  1
  O  O49  1  0.26171400  0.56590100  0.19234500  1
  O  O50  1  0.73019700  0.89822000  0.29858200  1
  O  O51  1  0.40122200  0.57420700  0.62532500  1
  O  O52  1  0.06077200  0.23924700  0.95663400  1
  O  O53  1  0.94710700  0.63635000  0.38850800  1
  O  O54  1  0.62160000  0.31142500  0.72184500  1
  O  O55  1  0.28786300  0.96703400  0.05860700  1
  O  O56  1  0.69604900  0.83094000  0.50411100  1
  O  O57  1  0.36346700  0.51049500  0.83595500  1
  O  O58  1  0.02477800  0.16959400  0.17391100  1
  O  O59  1  0.16906000  0.30395100  0.49588900  1
  O  O60  1  0.83040600  0.97522200  0.82608900  1
  O  O61  1  0.48950500  0.63653300  0.16404500  1
  O  O62  1  0.10178000  0.26980300  0.70141800  1
  O  O63  1  0.76075300  0.93922800  0.04336600  1
  O  O64  1  0.42579300  0.59877800  0.37467500  1
  O  O65  1  0.36365000  0.05289300  0.61149200  1
  O  O66  1  0.03296600  0.71213700  0.94139300  1
  O  O67  1  0.68857500  0.37840000  0.27815500  1
  O  O68  1  0.38797100  0.23206600  0.76934800  1
  O  O69  1  0.71547200  0.56480300  0.43377000  1
  O  O70  1  0.04941900  0.90125800  0.09935500  1
  O  O71  1  0.84545600  0.15454400  0.00000000  1
  O  O72  1  0.18346200  0.48594000  0.66765700  1
  O  O73  1  0.51406000  0.81653800  0.33234300  1
  O  O74  1  0.43519700  0.28452800  0.56623000  1
  O  O75  1  0.76793400  0.61202900  0.23065200  1
  O  O76  1  0.09874200  0.95058100  0.90064500  1
