# generated using pymatgen
data_Tb3SmNi4
_symmetry_space_group_name_H-M   'P 1'
_cell_length_a   3.74953800
_cell_length_b   4.27127600
_cell_length_c   10.20523500
_cell_angle_alpha   90.00000000
_cell_angle_beta   90.00000000
_cell_angle_gamma   90.00000000
_symmetry_Int_Tables_number   1
_chemical_formula_structural   Tb3SmNi4
_chemical_formula_sum   'Tb3 Sm1 Ni4'
_cell_volume   163.44001920
_cell_formula_units_Z   1
loop_
 _symmetry_equiv_pos_site_id
 _symmetry_equiv_pos_as_xyz
  1  'x, y, z'
loop_
 _atom_site_type_symbol
 _atom_site_label
 _atom_site_symmetry_multiplicity
 _atom_site_fract_x
 _atom_site_fract_y
 _atom_site_fract_z
 _atom_site_occupancy
  Tb  Tb0  1  0.00000000  0.50000000  0.86177600  1
  Tb  Tb1  1  0.00000000  0.00000000  0.13596900  1
  Tb  Tb2  1  0.50000000  0.00000000  0.63915500  1
  Sm  Sm3  1  0.50000000  0.50000000  0.36141300  1
  Ni  Ni4  1  0.50000000  0.50000000  0.07258200  1
  Ni  Ni5  1  0.00000000  0.50000000  0.57513800  1
  Ni  Ni6  1  0.00000000  0.00000000  0.42731600  1
  Ni  Ni7  1  0.50000000  0.00000000  0.92665100  1
