# generated using pymatgen
data_Na5Y(MoO4)4
_symmetry_space_group_name_H-M   'P 1'
_cell_length_a   10.02501364
_cell_length_b   10.02501364
_cell_length_c   10.02501364
_cell_angle_alpha   109.46939320
_cell_angle_beta   109.47213434
_cell_angle_gamma   109.47213437
_symmetry_Int_Tables_number   1
_chemical_formula_structural   Na5Y(MoO4)4
_chemical_formula_sum   'Na10 Y2 Mo8 O32'
_cell_volume   775.59147198
_cell_formula_units_Z   2
loop_
 _symmetry_equiv_pos_site_id
 _symmetry_equiv_pos_as_xyz
  1  'x, y, z'
loop_
 _atom_site_type_symbol
 _atom_site_label
 _atom_site_symmetry_multiplicity
 _atom_site_fract_x
 _atom_site_fract_y
 _atom_site_fract_z
 _atom_site_occupancy
  O  O0  1  0.79027304  0.48671639  0.34319097  1
  O  O1  1  0.85647539  0.84319219  0.55291899  1
  O  O2  1  0.64352527  0.19644395  0.98671743  1
  O  O3  1  0.70972675  0.05291793  0.69644331  1
  O  O4  1  0.20972668  0.51328282  0.65680796  1
  O  O5  1  0.14352495  0.15680825  0.44708154  1
  O  O6  1  0.35647506  0.80355648  0.01328310  1
  O  O7  1  0.29027297  0.94708129  0.30355662  1
  O  O8  1  0.51272959  0.51839314  0.36444529  1
  O  O9  1  0.84605277  0.86444585  0.85171595  1
  O  O10  1  0.65394671  0.50566285  0.01839198  1
  O  O11  1  0.98727130  0.35171619  0.00566407  1
  O  O12  1  0.48727075  0.48160729  0.63555424  1
  O  O13  1  0.15394757  0.13555459  0.14828359  1
  O  O14  1  0.34605301  0.49433636  0.98160694  1
  O  O15  1  0.01272903  0.64828425  0.99433647  1
  O  O16  1  0.42127621  0.27155329  0.07080068  1
  O  O17  1  0.79924685  0.57080005  0.64952447  1
  O  O18  1  0.70075340  0.35027738  0.77155284  1
  O  O19  1  0.07872396  0.14952430  0.85027665  1
  O  O20  1  0.07253797  0.69755205  0.32905269  1
  O  O21  1  0.63150041  0.82905226  0.25651496  1
  O  O22  1  0.86849946  0.12501395  0.19755145  1
  O  O23  1  0.42746278  0.75651429  0.62501355  1
  O  O24  1  0.92746236  0.30244839  0.67094785  1
  O  O25  1  0.36849992  0.17094817  0.74348557  1
  O  O26  1  0.57872412  0.72844715  0.92919985  1
  O  O27  1  0.57253695  0.24348492  0.37498538  1
  O  O28  1  0.92127638  0.85047613  0.14972289  1
  O  O29  1  0.29924693  0.64972305  0.22844669  1
  O  O30  1  0.20075349  0.42920039  0.35047606  1
  O  O31  1  0.13150027  0.87498527  0.80244848  1
  Na  Na32  1  0.25000003  0.87500037  0.62500017  1
  Na  Na33  1  0.75000030  0.12500007  0.37500037  1
  Na  Na34  1  0.83243962  0.72167061  0.29641203  1
  Na  Na35  1  0.57474106  0.79641188  0.46397231  1
  Na  Na36  1  0.92525849  0.38923068  0.22167109  1
  Na  Na37  1  0.66756019  0.96397254  0.88923090  1
  Na  Na38  1  0.16756011  0.27832860  0.70358789  1
  Na  Na39  1  0.42525866  0.20358733  0.53602761  1
  Na  Na40  1  0.07474123  0.61076853  0.77832884  1
  Na  Na41  1  0.33244015  0.03602789  0.11076963  1
  Y  Y42  1  0.74999995  0.62499944  0.87500030  1
  Y  Y43  1  0.24999978  0.37499977  0.12499963  1
  Mo  Mo44  1  0.33708266  0.54501615  0.56971138  1
  Mo  Mo45  1  0.47530520  0.70793418  0.04501563  1
  Mo  Mo46  1  0.02469434  0.06971040  0.23262815  1
  Mo  Mo47  1  0.16291820  0.73262904  0.20793429  1
  Mo  Mo48  1  0.83708214  0.26737140  0.79206625  1
  Mo  Mo49  1  0.52469514  0.29206625  0.95498391  1
  Mo  Mo50  1  0.97530538  0.93028881  0.76737078  1
  Mo  Mo51  1  0.66291768  0.45498429  0.43028916  1
