# generated using pymatgen
data_BaNa2
_symmetry_space_group_name_H-M   'P 1'
_cell_length_a   7.31183984
_cell_length_b   7.31183984
_cell_length_c   11.85739500
_cell_angle_alpha   90.00000000
_cell_angle_beta   90.00000000
_cell_angle_gamma   119.99999852
_symmetry_Int_Tables_number   1
_chemical_formula_structural   BaNa2
_chemical_formula_sum   'Ba4 Na8'
_cell_volume   549.00116401
_cell_formula_units_Z   4
loop_
 _symmetry_equiv_pos_site_id
 _symmetry_equiv_pos_as_xyz
  1  'x, y, z'
loop_
 _atom_site_type_symbol
 _atom_site_label
 _atom_site_symmetry_multiplicity
 _atom_site_fract_x
 _atom_site_fract_y
 _atom_site_fract_z
 _atom_site_occupancy
  Ba  Ba0  1  0.33333300  0.66666700  0.43862800  1
  Ba  Ba1  1  0.66666700  0.33333300  0.93862800  1
  Ba  Ba2  1  0.66666700  0.33333300  0.56137200  1
  Ba  Ba3  1  0.33333300  0.66666700  0.06137200  1
  Na  Na4  1  0.16908300  0.33816700  0.75000000  1
  Na  Na5  1  0.83091700  0.16908300  0.25000000  1
  Na  Na6  1  0.33816700  0.16908300  0.25000000  1
  Na  Na7  1  0.66183300  0.83091700  0.75000000  1
  Na  Na8  1  0.00000000  0.00000000  0.00000000  1
  Na  Na9  1  0.00000000  0.00000000  0.50000000  1
  Na  Na10  1  0.83091700  0.66183300  0.25000000  1
  Na  Na11  1  0.16908300  0.83091700  0.75000000  1
