# generated using pymatgen
data_ZrZn16
_symmetry_space_group_name_H-M   'P 1'
_cell_length_a   6.98271525
_cell_length_b   6.98271525
_cell_length_c   11.82697000
_cell_angle_alpha   90.00000000
_cell_angle_beta   90.00000000
_cell_angle_gamma   112.32230888
_symmetry_Int_Tables_number   1
_chemical_formula_structural   ZrZn16
_chemical_formula_sum   'Zr2 Zn32'
_cell_volume   533.44906081
_cell_formula_units_Z   2
loop_
 _symmetry_equiv_pos_site_id
 _symmetry_equiv_pos_as_xyz
  1  'x, y, z'
loop_
 _atom_site_type_symbol
 _atom_site_label
 _atom_site_symmetry_multiplicity
 _atom_site_fract_x
 _atom_site_fract_y
 _atom_site_fract_z
 _atom_site_occupancy
  Zr  Zr0  1  0.04740200  0.95259800  0.75000000  1
  Zr  Zr1  1  0.95259800  0.04740200  0.25000000  1
  Zn  Zn2  1  0.35506300  0.98288200  0.93127900  1
  Zn  Zn3  1  0.64493700  0.01711800  0.43127900  1
  Zn  Zn4  1  0.98288200  0.35506300  0.06872100  1
  Zn  Zn5  1  0.01711800  0.64493700  0.56872100  1
  Zn  Zn6  1  0.64493700  0.01711800  0.06872100  1
  Zn  Zn7  1  0.35506300  0.98288200  0.56872100  1
  Zn  Zn8  1  0.01711800  0.64493700  0.93127900  1
  Zn  Zn9  1  0.98288200  0.35506300  0.43127900  1
  Zn  Zn10  1  0.64832400  0.75588600  0.86596800  1
  Zn  Zn11  1  0.35167600  0.24411400  0.36596800  1
  Zn  Zn12  1  0.75588600  0.64832400  0.13403200  1
  Zn  Zn13  1  0.24411400  0.35167600  0.63403200  1
  Zn  Zn14  1  0.35167600  0.24411400  0.13403200  1
  Zn  Zn15  1  0.64832400  0.75588600  0.63403200  1
  Zn  Zn16  1  0.24411400  0.35167600  0.86596800  1
  Zn  Zn17  1  0.75588600  0.64832400  0.36596800  1
  Zn  Zn18  1  0.48085400  0.19467100  0.75000000  1
  Zn  Zn19  1  0.51914600  0.80532900  0.25000000  1
  Zn  Zn20  1  0.19467100  0.48085400  0.25000000  1
  Zn  Zn21  1  0.80532900  0.51914600  0.75000000  1
  Zn  Zn22  1  0.17825200  0.82174800  0.36042100  1
  Zn  Zn23  1  0.82174800  0.17825200  0.86042100  1
  Zn  Zn24  1  0.82174800  0.17825200  0.63957900  1
  Zn  Zn25  1  0.17825200  0.82174800  0.13957900  1
  Zn  Zn26  1  0.62098900  0.37901100  0.96945000  1
  Zn  Zn27  1  0.37901100  0.62098900  0.46945000  1
  Zn  Zn28  1  0.37901100  0.62098900  0.03055000  1
  Zn  Zn29  1  0.62098900  0.37901100  0.53055000  1
  Zn  Zn30  1  0.29215700  0.70784300  0.75000000  1
  Zn  Zn31  1  0.70784300  0.29215700  0.25000000  1
  Zn  Zn32  1  0.00000000  0.00000000  0.00000000  1
  Zn  Zn33  1  0.00000000  0.00000000  0.50000000  1
