# generated using pymatgen
data_Mn2Si(P2O7)2
_symmetry_space_group_name_H-M   'P 1'
_cell_length_a   9.04684618
_cell_length_b   9.04684618
_cell_length_c   12.56241722
_cell_angle_alpha   77.42496100
_cell_angle_beta   77.42496100
_cell_angle_gamma   33.22517039
_symmetry_Int_Tables_number   1
_chemical_formula_structural   Mn2Si(P2O7)2
_chemical_formula_sum   'Mn4 Si2 P8 O28'
_cell_volume   548.63610726
_cell_formula_units_Z   2
loop_
 _symmetry_equiv_pos_site_id
 _symmetry_equiv_pos_as_xyz
  1  'x, y, z'
loop_
 _atom_site_type_symbol
 _atom_site_label
 _atom_site_symmetry_multiplicity
 _atom_site_fract_x
 _atom_site_fract_y
 _atom_site_fract_z
 _atom_site_occupancy
  Mn  Mn0  1  0.91048500  0.59679600  0.63119400  1
  Mn  Mn1  1  0.40320400  0.08951500  0.86880600  1
  Mn  Mn2  1  0.08951500  0.40320400  0.36880600  1
  Mn  Mn3  1  0.59679600  0.91048500  0.13119400  1
  Si  Si4  1  0.85980500  0.14019500  0.75000000  1
  Si  Si5  1  0.14019500  0.85980500  0.25000000  1
  P  P6  1  0.70428100  0.02869600  0.41658800  1
  P  P7  1  0.97130400  0.29571900  0.08341200  1
  P  P8  1  0.29571900  0.97130400  0.58341200  1
  P  P9  1  0.02869600  0.70428100  0.91658800  1
  P  P10  1  0.52706100  0.22670900  0.63449400  1
  P  P11  1  0.77329100  0.47293900  0.86550600  1
  P  P12  1  0.47293900  0.77329100  0.36550600  1
  P  P13  1  0.22670900  0.52706100  0.13449400  1
  O  O14  1  0.89685800  0.98010100  0.33217800  1
  O  O15  1  0.01989900  0.10314200  0.16782200  1
  O  O16  1  0.10314200  0.01989900  0.66782200  1
  O  O17  1  0.98010100  0.89685800  0.83217800  1
  O  O18  1  0.16247200  0.23335100  0.54671000  1
  O  O19  1  0.76664900  0.83752800  0.95329000  1
  O  O20  1  0.83752800  0.76664900  0.45329000  1
  O  O21  1  0.23335100  0.16247200  0.04671000  1
  O  O22  1  0.57171200  0.73937100  0.62692600  1
  O  O23  1  0.26062900  0.42828800  0.87307400  1
  O  O24  1  0.42828800  0.26062900  0.37307400  1
  O  O25  1  0.73937100  0.57171200  0.12692600  1
  O  O26  1  0.69721000  0.11923000  0.51763400  1
  O  O27  1  0.88077000  0.30279000  0.98236600  1
  O  O28  1  0.28535200  0.62471500  0.17968500  1
  O  O29  1  0.37528500  0.71464800  0.32031500  1
  O  O30  1  0.71464800  0.37528500  0.82031500  1
  O  O31  1  0.62471500  0.28535200  0.67968500  1
  O  O32  1  0.49038600  0.22756900  0.12113000  1
  O  O33  1  0.77243100  0.50961400  0.37887000  1
  O  O34  1  0.50961400  0.77243100  0.87887000  1
  O  O35  1  0.22756900  0.49038600  0.62113000  1
  O  O36  1  0.37736900  0.00203900  0.29749300  1
  O  O37  1  0.99796100  0.62263100  0.20250700  1
  O  O38  1  0.62263100  0.99796100  0.70250700  1
  O  O39  1  0.00203900  0.37736900  0.79749300  1
  O  O40  1  0.11923000  0.69721000  0.01763400  1
  O  O41  1  0.30279000  0.88077000  0.48236600  1
