# generated using pymatgen
data_CeCuGe2
_symmetry_space_group_name_H-M   'P 1'
_cell_length_a   8.78477392
_cell_length_b   8.78477392
_cell_length_c   4.26675500
_cell_angle_alpha   90.00000000
_cell_angle_beta   90.00000000
_cell_angle_gamma   151.69468867
_symmetry_Int_Tables_number   1
_chemical_formula_structural   CeCuGe2
_chemical_formula_sum   'Ce2 Cu2 Ge4'
_cell_volume   156.13231520
_cell_formula_units_Z   2
loop_
 _symmetry_equiv_pos_site_id
 _symmetry_equiv_pos_as_xyz
  1  'x, y, z'
loop_
 _atom_site_type_symbol
 _atom_site_label
 _atom_site_symmetry_multiplicity
 _atom_site_fract_x
 _atom_site_fract_y
 _atom_site_fract_z
 _atom_site_occupancy
  Ce  Ce0  1  0.89574100  0.10425900  0.75000000  1
  Ce  Ce1  1  0.10425900  0.89574100  0.25000000  1
  Cu  Cu2  1  0.67714900  0.32285100  0.75000000  1
  Cu  Cu3  1  0.32285100  0.67714900  0.25000000  1
  Ge  Ge4  1  0.53857800  0.46142200  0.75000000  1
  Ge  Ge5  1  0.46142200  0.53857800  0.25000000  1
  Ge  Ge6  1  0.24867800  0.75132200  0.75000000  1
  Ge  Ge7  1  0.75132200  0.24867800  0.25000000  1
