# generated using pymatgen
data_La2Sb4Ir3
_symmetry_space_group_name_H-M   'P 1'
_cell_length_a   4.63807200
_cell_length_b   11.09499300
_cell_length_c   16.43001100
_cell_angle_alpha   90.00000000
_cell_angle_beta   90.00000000
_cell_angle_gamma   90.00000000
_symmetry_Int_Tables_number   1
_chemical_formula_structural   La2Sb4Ir3
_chemical_formula_sum   'La8 Sb16 Ir12'
_cell_volume   845.47811987
_cell_formula_units_Z   4
loop_
 _symmetry_equiv_pos_site_id
 _symmetry_equiv_pos_as_xyz
  1  'x, y, z'
loop_
 _atom_site_type_symbol
 _atom_site_label
 _atom_site_symmetry_multiplicity
 _atom_site_fract_x
 _atom_site_fract_y
 _atom_site_fract_z
 _atom_site_occupancy
  La  La0  1  0.25000000  0.74884000  0.50584200  1
  La  La1  1  0.25000000  0.75116000  0.00584200  1
  La  La2  1  0.75000000  0.25116000  0.49415800  1
  La  La3  1  0.75000000  0.24884000  0.99415800  1
  La  La4  1  0.25000000  0.58764900  0.75033500  1
  La  La5  1  0.25000000  0.91235100  0.25033500  1
  La  La6  1  0.75000000  0.41235100  0.24966500  1
  La  La7  1  0.75000000  0.08764900  0.74966500  1
  Sb  Sb8  1  0.25000000  0.27551200  0.65121100  1
  Sb  Sb9  1  0.25000000  0.22448800  0.15121100  1
  Sb  Sb10  1  0.75000000  0.72448800  0.34878900  1
  Sb  Sb11  1  0.75000000  0.77551200  0.84878900  1
  Sb  Sb12  1  0.25000000  0.88459700  0.70809600  1
  Sb  Sb13  1  0.25000000  0.61540300  0.20809600  1
  Sb  Sb14  1  0.75000000  0.11540300  0.29190400  1
  Sb  Sb15  1  0.75000000  0.38459700  0.79190400  1
  Sb  Sb16  1  0.25000000  0.06229900  0.89578600  1
  Sb  Sb17  1  0.25000000  0.43770100  0.39578600  1
  Sb  Sb18  1  0.75000000  0.93770100  0.10421400  1
  Sb  Sb19  1  0.75000000  0.56229900  0.60421400  1
  Sb  Sb20  1  0.25000000  0.44963100  0.93187100  1
  Sb  Sb21  1  0.25000000  0.05036900  0.43187100  1
  Sb  Sb22  1  0.75000000  0.55036900  0.06812900  1
  Sb  Sb23  1  0.75000000  0.94963100  0.56812900  1
  Ir  Ir24  1  0.25000000  0.46537300  0.55657100  1
  Ir  Ir25  1  0.25000000  0.03462700  0.05657100  1
  Ir  Ir26  1  0.75000000  0.53462700  0.44342900  1
  Ir  Ir27  1  0.75000000  0.96537300  0.94342900  1
  Ir  Ir28  1  0.25000000  0.05680500  0.59221300  1
  Ir  Ir29  1  0.25000000  0.44319500  0.09221300  1
  Ir  Ir30  1  0.75000000  0.94319500  0.40778700  1
  Ir  Ir31  1  0.75000000  0.55680500  0.90778700  1
  Ir  Ir32  1  0.25000000  0.27707800  0.81931400  1
  Ir  Ir33  1  0.25000000  0.22292200  0.31931400  1
  Ir  Ir34  1  0.75000000  0.72292200  0.18068600  1
  Ir  Ir35  1  0.75000000  0.77707800  0.68068600  1
