# generated using pymatgen
data_Nd2Bi
_symmetry_space_group_name_H-M   'P 1'
_cell_length_a   9.68492074
_cell_length_b   9.68492074
_cell_length_c   9.68492074
_cell_angle_alpha   152.23981392
_cell_angle_beta   152.23981392
_cell_angle_gamma   39.66319753
_symmetry_Int_Tables_number   1
_chemical_formula_structural   Nd2Bi
_chemical_formula_sum   'Nd4 Bi2'
_cell_volume   196.70868381
_cell_formula_units_Z   2
loop_
 _symmetry_equiv_pos_site_id
 _symmetry_equiv_pos_as_xyz
  1  'x, y, z'
loop_
 _atom_site_type_symbol
 _atom_site_label
 _atom_site_symmetry_multiplicity
 _atom_site_fract_x
 _atom_site_fract_y
 _atom_site_fract_z
 _atom_site_occupancy
  Nd  Nd0  1  0.00000000  0.50000000  0.50000000  1
  Nd  Nd1  1  0.50000000  0.00000000  0.50000000  1
  Nd  Nd2  1  0.82080000  0.82080000  0.00000000  1
  Nd  Nd3  1  0.17920000  0.17920000  0.00000000  1
  Bi  Bi4  1  0.63902400  0.63902400  0.00000000  1
  Bi  Bi5  1  0.36097600  0.36097600  0.00000000  1
