# generated using pymatgen
data_Er3CrS6
_symmetry_space_group_name_H-M   'P 1'
_cell_length_a   3.74337200
_cell_length_b   13.21718100
_cell_length_c   15.85788900
_cell_angle_alpha   90.00000000
_cell_angle_beta   90.00000000
_cell_angle_gamma   90.00000000
_symmetry_Int_Tables_number   1
_chemical_formula_structural   Er3CrS6
_chemical_formula_sum   'Er12 Cr4 S24'
_cell_volume   784.59800327
_cell_formula_units_Z   4
loop_
 _symmetry_equiv_pos_site_id
 _symmetry_equiv_pos_as_xyz
  1  'x, y, z'
loop_
 _atom_site_type_symbol
 _atom_site_label
 _atom_site_symmetry_multiplicity
 _atom_site_fract_x
 _atom_site_fract_y
 _atom_site_fract_z
 _atom_site_occupancy
  Er  Er0  1  0.00000000  0.24266900  0.59869000  1
  Er  Er1  1  0.00000000  0.75733100  0.40131000  1
  Er  Er2  1  0.50000000  0.74266900  0.90131000  1
  Er  Er3  1  0.50000000  0.25733100  0.09869000  1
  Er  Er4  1  0.50000000  0.18134600  0.85276000  1
  Er  Er5  1  0.50000000  0.81865400  0.14724000  1
  Er  Er6  1  0.00000000  0.68134600  0.64724000  1
  Er  Er7  1  0.00000000  0.31865400  0.35276000  1
  Er  Er8  1  0.50000000  0.95034700  0.72154000  1
  Er  Er9  1  0.50000000  0.04965300  0.27846000  1
  Er  Er10  1  0.00000000  0.45034700  0.77846000  1
  Er  Er11  1  0.00000000  0.54965300  0.22154000  1
  Cr  Cr12  1  0.00000000  0.00000000  0.50000000  1
  Cr  Cr13  1  0.50000000  0.50000000  0.00000000  1
  Cr  Cr14  1  0.00000000  0.00000000  0.00000000  1
  Cr  Cr15  1  0.50000000  0.50000000  0.50000000  1
  S  S16  1  0.00000000  0.18127700  0.98013800  1
  S  S17  1  0.00000000  0.81872300  0.01986200  1
  S  S18  1  0.50000000  0.68127700  0.51986200  1
  S  S19  1  0.50000000  0.31872300  0.48013800  1
  S  S20  1  0.50000000  0.97826800  0.90223200  1
  S  S21  1  0.50000000  0.02173200  0.09776800  1
  S  S22  1  0.00000000  0.47826800  0.59776800  1
  S  S23  1  0.00000000  0.52173200  0.40223200  1
  S  S24  1  0.00000000  0.10396900  0.74673800  1
  S  S25  1  0.00000000  0.89603100  0.25326200  1
  S  S26  1  0.50000000  0.60396900  0.75326200  1
  S  S27  1  0.50000000  0.39603100  0.24673800  1
  S  S28  1  0.00000000  0.81118000  0.78969700  1
  S  S29  1  0.00000000  0.18882000  0.21030300  1
  S  S30  1  0.50000000  0.31118000  0.71030300  1
  S  S31  1  0.50000000  0.68882000  0.28969700  1
  S  S32  1  0.00000000  0.41790100  0.07599800  1
  S  S33  1  0.00000000  0.58209900  0.92400200  1
  S  S34  1  0.50000000  0.91790100  0.42400200  1
  S  S35  1  0.50000000  0.08209900  0.57599800  1
  S  S36  1  0.50000000  0.61984100  0.10927000  1
  S  S37  1  0.50000000  0.38015900  0.89073000  1
  S  S38  1  0.00000000  0.11984100  0.39073000  1
  S  S39  1  0.00000000  0.88015900  0.60927000  1
