# generated using pymatgen
data_Tm2(Ni5B3)3
_symmetry_space_group_name_H-M   'P 1'
_cell_length_a   9.81508242
_cell_length_b   9.81508242
_cell_length_c   11.22711972
_cell_angle_alpha   90.00000000
_cell_angle_beta   90.00000000
_cell_angle_gamma   107.93187018
_symmetry_Int_Tables_number   1
_chemical_formula_structural   Tm2(Ni5B3)3
_chemical_formula_sum   'Tm8 Ni60 B36'
_cell_volume   1029.03473588
_cell_formula_units_Z   4
loop_
 _symmetry_equiv_pos_site_id
 _symmetry_equiv_pos_as_xyz
  1  'x, y, z'
loop_
 _atom_site_type_symbol
 _atom_site_label
 _atom_site_symmetry_multiplicity
 _atom_site_fract_x
 _atom_site_fract_y
 _atom_site_fract_z
 _atom_site_occupancy
  Tm  Tm0  1  0.25960009  0.25960009  0.95778583  1
  Tm  Tm1  1  0.74039991  0.74039991  0.04221417  1
  Tm  Tm2  1  0.24039991  0.24039991  0.45778583  1
  Tm  Tm3  1  0.75960009  0.75960009  0.54221417  1
  Tm  Tm4  1  0.19035041  0.69035041  0.75000000  1
  Tm  Tm5  1  0.30964959  0.80964959  0.25000000  1
  Tm  Tm6  1  0.80964959  0.30964959  0.25000000  1
  Tm  Tm7  1  0.69035041  0.19035041  0.75000000  1
  Ni  Ni8  1  0.50000000  0.50000000  -0.00000000  1
  Ni  Ni9  1  0.00000000  0.00000000  0.50000000  1
  Ni  Ni10  1  0.50000000  0.50000000  0.50000000  1
  Ni  Ni11  1  0.00000000  0.00000000  -0.00000000  1
  Ni  Ni12  1  0.23375170  0.23375170  0.71232815  1
  Ni  Ni13  1  0.76624830  0.76624830  0.28767185  1
  Ni  Ni14  1  0.26624830  0.26624830  0.21232815  1
  Ni  Ni15  1  0.73375170  0.73375170  0.78767185  1
  Ni  Ni16  1  0.92992392  0.42992392  0.75000000  1
  Ni  Ni17  1  0.57007608  0.07007608  0.25000000  1
  Ni  Ni18  1  0.07007608  0.57007608  0.25000000  1
  Ni  Ni19  1  0.42992392  0.92992392  0.75000000  1
  Ni  Ni20  1  0.98903193  0.18202526  0.83985320  1
  Ni  Ni21  1  0.81797474  0.01096807  0.16014680  1
  Ni  Ni22  1  0.31797474  0.51096807  0.33985320  1
  Ni  Ni23  1  0.48903193  0.68202526  0.66014680  1
  Ni  Ni24  1  0.01096807  0.81797474  0.16014680  1
  Ni  Ni25  1  0.18202526  0.98903193  0.83985320  1
  Ni  Ni26  1  0.68202526  0.48903193  0.66014680  1
  Ni  Ni27  1  0.51096807  0.31797474  0.33985320  1
  Ni  Ni28  1  0.25685593  0.47056873  0.59678241  1
  Ni  Ni29  1  0.52943127  0.74314407  0.40321759  1
  Ni  Ni30  1  0.02943127  0.24314407  0.09678241  1
  Ni  Ni31  1  0.75685593  0.97056873  0.90321759  1
  Ni  Ni32  1  0.74314407  0.52943127  0.40321759  1
  Ni  Ni33  1  0.47056873  0.25685593  0.59678241  1
  Ni  Ni34  1  0.97056873  0.75685593  0.90321759  1
  Ni  Ni35  1  0.24314407  0.02943127  0.09678241  1
  Ni  Ni36  1  0.99569888  0.22730323  0.61760378  1
  Ni  Ni37  1  0.77269677  0.00430112  0.38239622  1
  Ni  Ni38  1  0.27269677  0.50430112  0.11760378  1
  Ni  Ni39  1  0.49569888  0.72730323  0.88239622  1
  Ni  Ni40  1  0.00430112  0.77269677  0.38239622  1
  Ni  Ni41  1  0.22730323  0.99569888  0.61760378  1
  Ni  Ni42  1  0.72730323  0.49569888  0.88239622  1
  Ni  Ni43  1  0.50430112  0.27269677  0.11760378  1
  Ni  Ni44  1  0.10676884  0.44613929  0.91553419  1
  Ni  Ni45  1  0.55386071  0.89323116  0.08446581  1
  Ni  Ni46  1  0.05386071  0.39323116  0.41553419  1
  Ni  Ni47  1  0.60676884  0.94613929  0.58446581  1
  Ni  Ni48  1  0.89323116  0.55386071  0.08446581  1
  Ni  Ni49  1  0.44613929  0.10676884  0.91553419  1
  Ni  Ni50  1  0.94613929  0.60676884  0.58446581  1
  Ni  Ni51  1  0.39323116  0.05386071  0.41553419  1
  Ni  Ni52  1  0.33081452  0.48961439  0.80613235  1
  Ni  Ni53  1  0.51038561  0.66918548  0.19386765  1
  Ni  Ni54  1  0.01038561  0.16918548  0.30613235  1
  Ni  Ni55  1  0.83081452  0.98961439  0.69386765  1
  Ni  Ni56  1  0.66918548  0.51038561  0.19386765  1
  Ni  Ni57  1  0.48961439  0.33081452  0.80613235  1
  Ni  Ni58  1  0.98961439  0.83081452  0.69386765  1
  Ni  Ni59  1  0.16918548  0.01038561  0.30613235  1
  Ni  Ni60  1  0.83759996  0.36285189  0.53030443  1
  Ni  Ni61  1  0.63714811  0.16240004  0.46969557  1
  Ni  Ni62  1  0.13714811  0.66240004  0.03030443  1
  Ni  Ni63  1  0.33759996  0.86285189  0.96969557  1
  Ni  Ni64  1  0.16240004  0.63714811  0.46969557  1
  Ni  Ni65  1  0.36285189  0.83759996  0.53030443  1
  Ni  Ni66  1  0.86285189  0.33759996  0.96969557  1
  Ni  Ni67  1  0.66240004  0.13714811  0.03030443  1
  B  B68  1  0.36512951  0.63487049  0.50000000  1
  B  B69  1  0.86512951  0.13487049  -0.00000000  1
  B  B70  1  0.63487049  0.36512951  0.50000000  1
  B  B71  1  0.13487049  0.86512951  -0.00000000  1
  B  B72  1  0.45168141  0.45168141  0.67181951  1
  B  B73  1  0.54831859  0.54831859  0.32818049  1
  B  B74  1  0.04831859  0.04831859  0.17181951  1
  B  B75  1  0.95168141  0.95168141  0.82818049  1
  B  B76  1  0.05647105  0.05647105  0.69956199  1
  B  B77  1  0.94352895  0.94352895  0.30043801  1
  B  B78  1  0.44352895  0.44352895  0.19956199  1
  B  B79  1  0.55647105  0.55647105  0.80043801  1
  B  B80  1  0.12025462  0.37829684  0.74489393  1
  B  B81  1  0.62170316  0.87974538  0.25510607  1
  B  B82  1  0.12170316  0.37974538  0.24489393  1
  B  B83  1  0.62025462  0.87829684  0.75510607  1
  B  B84  1  0.87974538  0.62170316  0.25510607  1
  B  B85  1  0.37829684  0.12025462  0.74489393  1
  B  B86  1  0.87829684  0.62025462  0.75510607  1
  B  B87  1  0.37974538  0.12170316  0.24489393  1
  B  B88  1  0.29762732  0.59364066  0.94878314  1
  B  B89  1  0.40635934  0.70237268  0.05121686  1
  B  B90  1  0.90635934  0.20237268  0.44878314  1
  B  B91  1  0.79762732  0.09364066  0.55121686  1
  B  B92  1  0.70237268  0.40635934  0.05121686  1
  B  B93  1  0.59364066  0.29762732  0.94878314  1
  B  B94  1  0.09364066  0.79762732  0.55121686  1
  B  B95  1  0.20237268  0.90635934  0.44878314  1
  B  B96  1  0.04885507  0.45068631  0.60020022  1
  B  B97  1  0.54931369  0.95114493  0.39979978  1
  B  B98  1  0.04931369  0.45114493  0.10020022  1
  B  B99  1  0.54885507  0.95068631  0.89979978  1
  B  B100  1  0.95114493  0.54931369  0.39979978  1
  B  B101  1  0.45068631  0.04885507  0.60020022  1
  B  B102  1  0.95068631  0.54885507  0.89979978  1
  B  B103  1  0.45114493  0.04931369  0.10020022  1
