# generated using pymatgen
data_KFeCu(PO4)2
_symmetry_space_group_name_H-M   'P 1'
_cell_length_a   10.05625000
_cell_length_b   8.10054800
_cell_length_c   9.20708261
_cell_angle_alpha   63.55552583
_cell_angle_beta   90.00000000
_cell_angle_gamma   90.00000000
_symmetry_Int_Tables_number   1
_chemical_formula_structural   KFeCu(PO4)2
_chemical_formula_sum   'K4 Fe4 Cu4 P8 O32'
_cell_volume   671.54214293
_cell_formula_units_Z   4
loop_
 _symmetry_equiv_pos_site_id
 _symmetry_equiv_pos_as_xyz
  1  'x, y, z'
loop_
 _atom_site_type_symbol
 _atom_site_label
 _atom_site_symmetry_multiplicity
 _atom_site_fract_x
 _atom_site_fract_y
 _atom_site_fract_z
 _atom_site_occupancy
  K  K0  1  0.36569100  0.65750300  0.42516400  1
  K  K1  1  0.13430900  0.65750300  0.92516400  1
  K  K2  1  0.63430900  0.34249700  0.57483600  1
  K  K3  1  0.86569100  0.34249700  0.07483600  1
  Fe  Fe4  1  0.62560000  0.72850000  0.75690100  1
  Fe  Fe5  1  0.87440000  0.72850000  0.25690100  1
  Fe  Fe6  1  0.37440000  0.27150000  0.24309900  1
  Fe  Fe7  1  0.12560000  0.27150000  0.74309900  1
  Cu  Cu8  1  0.62035300  0.07951500  0.05261800  1
  Cu  Cu9  1  0.87964700  0.07951500  0.55261800  1
  Cu  Cu10  1  0.37964700  0.92048500  0.94738200  1
  Cu  Cu11  1  0.12035300  0.92048500  0.44738200  1
  P  P12  1  0.65967100  0.01245500  0.35909600  1
  P  P13  1  0.84032900  0.01245500  0.85909600  1
  P  P14  1  0.34032900  0.98754500  0.64090400  1
  P  P15  1  0.15967100  0.98754500  0.14090400  1
  P  P16  1  0.41253400  0.38054500  0.85172900  1
  P  P17  1  0.08746600  0.38054500  0.35172900  1
  P  P18  1  0.58746600  0.61945500  0.14827100  1
  P  P19  1  0.91253400  0.61945500  0.64827100  1
  O  O20  1  0.76416700  0.15675000  0.89290000  1
  O  O21  1  0.73583300  0.15675000  0.39290000  1
  O  O22  1  0.23583300  0.84325000  0.10710000  1
  O  O23  1  0.26416700  0.84325000  0.60710000  1
  O  O24  1  0.74673900  0.95690300  0.24421200  1
  O  O25  1  0.75326100  0.95690300  0.74421200  1
  O  O26  1  0.25326100  0.04309700  0.75578800  1
  O  O27  1  0.24673900  0.04309700  0.25578800  1
  O  O28  1  0.53796700  0.10861900  0.24390000  1
  O  O29  1  0.96203300  0.10861900  0.74390000  1
  O  O30  1  0.46203300  0.89138100  0.75610000  1
  O  O31  1  0.03796700  0.89138100  0.25610000  1
  O  O32  1  0.61416800  0.84494600  0.51171700  1
  O  O33  1  0.88583200  0.84494600  0.01171700  1
  O  O34  1  0.38583200  0.15505400  0.48828300  1
  O  O35  1  0.11416800  0.15505400  0.98828300  1
  O  O36  1  0.36844000  0.39910300  0.00391800  1
  O  O37  1  0.13156000  0.39910300  0.50391800  1
  O  O38  1  0.63156000  0.60089700  0.99608200  1
  O  O39  1  0.86844000  0.60089700  0.49608200  1
  O  O40  1  0.29232400  0.40158300  0.74033200  1
  O  O41  1  0.20767600  0.40158300  0.24033200  1
  O  O42  1  0.70767600  0.59841700  0.25966800  1
  O  O43  1  0.79232400  0.59841700  0.75966800  1
  O  O44  1  0.51321600  0.53076700  0.74686400  1
  O  O45  1  0.98678400  0.53076700  0.24686400  1
  O  O46  1  0.48678400  0.46923300  0.25313600  1
  O  O47  1  0.01321600  0.46923300  0.75313600  1
  O  O48  1  0.47684500  0.18735900  0.89784700  1
  O  O49  1  0.02315500  0.18735900  0.39784700  1
  O  O50  1  0.52315500  0.81264100  0.10215300  1
  O  O51  1  0.97684500  0.81264100  0.60215300  1
