# generated using pymatgen
data_HfMgN2
_symmetry_space_group_name_H-M   'P 1'
_cell_length_a   4.43598600
_cell_length_b   6.40664800
_cell_length_c   7.43214300
_cell_angle_alpha   90.00000000
_cell_angle_beta   90.00000000
_cell_angle_gamma   90.00000000
_symmetry_Int_Tables_number   1
_chemical_formula_structural   HfMgN2
_chemical_formula_sum   'Hf4 Mg4 N8'
_cell_volume   211.22002384
_cell_formula_units_Z   4
loop_
 _symmetry_equiv_pos_site_id
 _symmetry_equiv_pos_as_xyz
  1  'x, y, z'
loop_
 _atom_site_type_symbol
 _atom_site_label
 _atom_site_symmetry_multiplicity
 _atom_site_fract_x
 _atom_site_fract_y
 _atom_site_fract_z
 _atom_site_occupancy
  Hf  Hf0  1  0.75000000  0.58760900  0.63036600  1
  Hf  Hf1  1  0.25000000  0.41239100  0.36963400  1
  Hf  Hf2  1  0.25000000  0.91239100  0.13036600  1
  Hf  Hf3  1  0.75000000  0.08760900  0.86963400  1
  Mg  Mg4  1  0.75000000  0.57834900  0.11865300  1
  Mg  Mg5  1  0.25000000  0.42165100  0.88134700  1
  Mg  Mg6  1  0.25000000  0.92165100  0.61865300  1
  Mg  Mg7  1  0.75000000  0.07834900  0.38134700  1
  N  N8  1  0.25000000  0.57921900  0.61488700  1
  N  N9  1  0.75000000  0.42078100  0.38511300  1
  N  N10  1  0.75000000  0.92078100  0.11488700  1
  N  N11  1  0.25000000  0.07921900  0.88511300  1
  N  N12  1  0.25000000  0.58460800  0.13222200  1
  N  N13  1  0.75000000  0.41539200  0.86777800  1
  N  N14  1  0.75000000  0.91539200  0.63222200  1
  N  N15  1  0.25000000  0.08460800  0.36777800  1
