# generated using pymatgen
data_Ho6GaNi2
_symmetry_space_group_name_H-M   'P 1'
_cell_length_a   8.23660857
_cell_length_b   8.23660857
_cell_length_c   8.23660857
_cell_angle_alpha   112.84672222
_cell_angle_beta   109.35536657
_cell_angle_gamma   106.27850098
_symmetry_Int_Tables_number   1
_chemical_formula_structural   Ho6GaNi2
_chemical_formula_sum   'Ho12 Ga2 Ni4'
_cell_volume   428.73565186
_cell_formula_units_Z   2
loop_
 _symmetry_equiv_pos_site_id
 _symmetry_equiv_pos_as_xyz
  1  'x, y, z'
loop_
 _atom_site_type_symbol
 _atom_site_label
 _atom_site_symmetry_multiplicity
 _atom_site_fract_x
 _atom_site_fract_y
 _atom_site_fract_z
 _atom_site_occupancy
  Ho  Ho0  1  0.43248100  0.23599700  0.19648400  1
  Ho  Ho1  1  0.56751900  0.76400300  0.80351600  1
  Ho  Ho2  1  0.03951300  0.23599700  0.80351600  1
  Ho  Ho3  1  0.96048700  0.76400300  0.19648400  1
  Ho  Ho4  1  0.18090800  0.28447100  0.46537800  1
  Ho  Ho5  1  0.81909200  0.71552900  0.53462200  1
  Ho  Ho6  1  0.18090800  0.71552900  0.89643700  1
  Ho  Ho7  1  0.81909200  0.28447100  0.10356300  1
  Ho  Ho8  1  0.32402300  0.62893400  0.30491200  1
  Ho  Ho9  1  0.67597700  0.37106600  0.69508800  1
  Ho  Ho10  1  0.32402300  0.01911100  0.69508800  1
  Ho  Ho11  1  0.67597700  0.98088900  0.30491200  1
  Ga  Ga12  1  0.50000000  0.50000000  0.00000000  1
  Ga  Ga13  1  0.00000000  0.00000000  0.00000000  1
  Ni  Ni14  1  0.35385700  0.00000000  0.35385700  1
  Ni  Ni15  1  0.64614300  0.00000000  0.64614300  1
  Ni  Ni16  1  0.12278800  0.62278800  0.50000000  1
  Ni  Ni17  1  0.87721200  0.37721200  0.50000000  1
