# generated using pymatgen
data_Ba4Ta2O9
_symmetry_space_group_name_H-M   'P 1'
_cell_length_a   6.13486530
_cell_length_b   6.13486530
_cell_length_c   16.90896400
_cell_angle_alpha   90.00000000
_cell_angle_beta   90.00000000
_cell_angle_gamma   119.99999248
_symmetry_Int_Tables_number   1
_chemical_formula_structural   Ba4Ta2O9
_chemical_formula_sum   'Ba8 Ta4 O18'
_cell_volume   551.13466472
_cell_formula_units_Z   2
loop_
 _symmetry_equiv_pos_site_id
 _symmetry_equiv_pos_as_xyz
  1  'x, y, z'
loop_
 _atom_site_type_symbol
 _atom_site_label
 _atom_site_symmetry_multiplicity
 _atom_site_fract_x
 _atom_site_fract_y
 _atom_site_fract_z
 _atom_site_occupancy
  Ba  Ba0  1  0.00000000  0.00000000  0.75000000  1
  Ba  Ba1  1  0.00000000  0.00000000  0.25000000  1
  Ba  Ba2  1  0.66666700  0.33333300  0.63624500  1
  Ba  Ba3  1  0.33333300  0.66666700  0.13624500  1
  Ba  Ba4  1  0.33333300  0.66666700  0.36375500  1
  Ba  Ba5  1  0.66666700  0.33333300  0.86375500  1
  Ba  Ba6  1  0.00000000  0.00000000  0.50000000  1
  Ba  Ba7  1  0.00000000  0.00000000  0.00000000  1
  Ta  Ta8  1  0.66666700  0.33333300  0.33924300  1
  Ta  Ta9  1  0.33333300  0.66666700  0.83924300  1
  Ta  Ta10  1  0.33333300  0.66666700  0.66075700  1
  Ta  Ta11  1  0.66666700  0.33333300  0.16075700  1
  O  O12  1  0.51645500  0.95632400  0.75000000  1
  O  O13  1  0.04367600  0.56013100  0.75000000  1
  O  O14  1  0.43986900  0.48354500  0.75000000  1
  O  O15  1  0.48354500  0.04367600  0.25000000  1
  O  O16  1  0.95632400  0.43986900  0.25000000  1
  O  O17  1  0.56013100  0.51645500  0.25000000  1
  O  O18  1  0.11585100  0.35357200  0.61004900  1
  O  O19  1  0.64642800  0.76227900  0.61004900  1
  O  O20  1  0.23772100  0.88414900  0.61004900  1
  O  O21  1  0.88414900  0.64642800  0.11004900  1
  O  O22  1  0.35357200  0.23772100  0.11004900  1
  O  O23  1  0.76227900  0.11585100  0.11004900  1
  O  O24  1  0.88414900  0.64642800  0.38995100  1
  O  O25  1  0.35357200  0.23772100  0.38995100  1
  O  O26  1  0.76227900  0.11585100  0.38995100  1
  O  O27  1  0.11585100  0.35357200  0.88995100  1
  O  O28  1  0.64642800  0.76227900  0.88995100  1
  O  O29  1  0.23772100  0.88414900  0.88995100  1
