# generated using pymatgen
data_Zn3Fe9(PO4)8
_symmetry_space_group_name_H-M   'P 1'
_cell_length_a   6.12797800
_cell_length_b   9.65992167
_cell_length_c   10.57072932
_cell_angle_alpha   89.74679931
_cell_angle_beta   89.81586364
_cell_angle_gamma   89.81260061
_symmetry_Int_Tables_number   1
_chemical_formula_structural   Zn3Fe9(PO4)8
_chemical_formula_sum   'Zn3 Fe9 P8 O32'
_cell_volume   625.72998662
_cell_formula_units_Z   1
loop_
 _symmetry_equiv_pos_site_id
 _symmetry_equiv_pos_as_xyz
  1  'x, y, z'
loop_
 _atom_site_type_symbol
 _atom_site_label
 _atom_site_symmetry_multiplicity
 _atom_site_fract_x
 _atom_site_fract_y
 _atom_site_fract_z
 _atom_site_occupancy
  Zn  Zn0  1  0.00025600  0.74999000  0.49997900  1
  Zn  Zn1  1  0.99974400  0.25001000  0.50002100  1
  Zn  Zn2  1  0.00000000  0.00000000  0.00000000  1
  Fe  Fe3  1  0.00000000  0.50000000  0.00000000  1
  Fe  Fe4  1  0.73646000  0.74200700  0.21734700  1
  Fe  Fe5  1  0.73534300  0.24071700  0.21743800  1
  Fe  Fe6  1  0.26387900  0.99017700  0.28291300  1
  Fe  Fe7  1  0.26443100  0.49109900  0.28269600  1
  Fe  Fe8  1  0.26465700  0.75928300  0.78256200  1
  Fe  Fe9  1  0.26354000  0.25799300  0.78265300  1
  Fe  Fe10  1  0.73556900  0.50890100  0.71730400  1
  Fe  Fe11  1  0.73612100  0.00982300  0.71708700  1
  P  P12  1  0.76222800  0.96505100  0.40082500  1
  P  P13  1  0.76241800  0.46494200  0.40029900  1
  P  P14  1  0.23834800  0.71567400  0.09994900  1
  P  P15  1  0.23807500  0.21409300  0.09966800  1
  P  P16  1  0.23758200  0.53505800  0.59970100  1
  P  P17  1  0.23777200  0.03494900  0.59917500  1
  P  P18  1  0.76192500  0.78590700  0.90033200  1
  P  P19  1  0.76165200  0.28432600  0.90005100  1
  O  O20  1  0.75412900  0.84231600  0.03771300  1
  O  O21  1  0.75362100  0.34036000  0.03724600  1
  O  O22  1  0.24511200  0.59270200  0.46229500  1
  O  O23  1  0.24534000  0.09266500  0.46190700  1
  O  O24  1  0.24637900  0.65964000  0.96275400  1
  O  O25  1  0.24587100  0.15768400  0.96228700  1
  O  O26  1  0.75466000  0.90733500  0.53809300  1
  O  O27  1  0.75488800  0.40729800  0.53770500  1
  O  O28  1  0.77698300  0.62455400  0.39507800  1
  O  O29  1  0.77745500  0.12454100  0.39538000  1
  O  O30  1  0.22234000  0.87559500  0.10469100  1
  O  O31  1  0.22164200  0.37347900  0.10415000  1
  O  O32  1  0.22254500  0.87545900  0.60462000  1
  O  O33  1  0.22301700  0.37544600  0.60492200  1
  O  O34  1  0.77835800  0.62652100  0.89585000  1
  O  O35  1  0.77766000  0.12440500  0.89530900  1
  O  O36  1  0.57235300  0.90989800  0.31882600  1
  O  O37  1  0.57286200  0.40976400  0.31808200  1
  O  O38  1  0.42824400  0.65962800  0.18203500  1
  O  O39  1  0.42802100  0.15902800  0.18209300  1
  O  O40  1  0.42713800  0.59023600  0.68191800  1
  O  O41  1  0.42764700  0.09010200  0.68117400  1
  O  O42  1  0.57197900  0.84097200  0.81790700  1
  O  O43  1  0.57175600  0.34037200  0.81796500  1
  O  O44  1  0.97143000  0.89030700  0.34092100  1
  O  O45  1  0.97211600  0.39053200  0.34047300  1
  O  O46  1  0.02958800  0.64212000  0.16021700  1
  O  O47  1  0.02888400  0.14001100  0.15975800  1
  O  O48  1  0.02788400  0.60946800  0.65952700  1
  O  O49  1  0.02857000  0.10969300  0.65907900  1
  O  O50  1  0.97111600  0.85998900  0.84024200  1
  O  O51  1  0.97041200  0.35788000  0.83978300  1
