# generated using pymatgen
data_Tm12Fe2Pb3
_symmetry_space_group_name_H-M   'P 1'
_cell_length_a   8.38129575
_cell_length_b   8.38129575
_cell_length_c   8.38129575
_cell_angle_alpha   110.22558339
_cell_angle_beta   110.22558339
_cell_angle_gamma   107.97280631
_symmetry_Int_Tables_number   1
_chemical_formula_structural   Tm12Fe2Pb3
_chemical_formula_sum   'Tm12 Fe2 Pb3'
_cell_volume   452.99091173
_cell_formula_units_Z   1
loop_
 _symmetry_equiv_pos_site_id
 _symmetry_equiv_pos_as_xyz
  1  'x, y, z'
loop_
 _atom_site_type_symbol
 _atom_site_label
 _atom_site_symmetry_multiplicity
 _atom_site_fract_x
 _atom_site_fract_y
 _atom_site_fract_z
 _atom_site_occupancy
  Tm  Tm0  1  0.46035000  0.21521000  0.24514000  1
  Tm  Tm1  1  0.53965000  0.78479000  0.75486000  1
  Tm  Tm2  1  0.97007000  0.21521000  0.75486000  1
  Tm  Tm3  1  0.21521000  0.97007000  0.75486000  1
  Tm  Tm4  1  0.02993000  0.78479000  0.24514000  1
  Tm  Tm5  1  0.78479000  0.02993000  0.24514000  1
  Tm  Tm6  1  0.21521000  0.46035000  0.24514000  1
  Tm  Tm7  1  0.78479000  0.53965000  0.75486000  1
  Tm  Tm8  1  0.30497700  0.30497700  0.60995300  1
  Tm  Tm9  1  0.69502300  0.69502300  0.39004700  1
  Tm  Tm10  1  0.30497700  0.69502300  0.00000000  1
  Tm  Tm11  1  0.69502300  0.30497700  0.00000000  1
  Fe  Fe12  1  0.38854400  0.38854400  0.00000000  1
  Fe  Fe13  1  0.61145600  0.61145600  0.00000000  1
  Pb  Pb14  1  0.50000000  0.00000000  0.50000000  1
  Pb  Pb15  1  0.00000000  0.50000000  0.50000000  1
  Pb  Pb16  1  0.00000000  0.00000000  0.00000000  1
