# generated using pymatgen
data_K(TeMo)3
_symmetry_space_group_name_H-M   'P 1'
_cell_length_a   9.84701463
_cell_length_b   9.84701463
_cell_length_c   4.62902100
_cell_angle_alpha   90.00000000
_cell_angle_beta   90.00000000
_cell_angle_gamma   120.00000422
_symmetry_Int_Tables_number   1
_chemical_formula_structural   K(TeMo)3
_chemical_formula_sum   'K2 Te6 Mo6'
_cell_volume   388.71287923
_cell_formula_units_Z   2
loop_
 _symmetry_equiv_pos_site_id
 _symmetry_equiv_pos_as_xyz
  1  'x, y, z'
loop_
 _atom_site_type_symbol
 _atom_site_label
 _atom_site_symmetry_multiplicity
 _atom_site_fract_x
 _atom_site_fract_y
 _atom_site_fract_z
 _atom_site_occupancy
  K  K0  1  0.33333300  0.66666700  0.25000000  1
  K  K1  1  0.66666700  0.33333300  0.75000000  1
  Te  Te2  1  0.35741400  0.05635100  0.25000000  1
  Te  Te3  1  0.94364900  0.30106200  0.25000000  1
  Te  Te4  1  0.69893800  0.64258600  0.25000000  1
  Te  Te5  1  0.30106200  0.35741400  0.75000000  1
  Te  Te6  1  0.05635100  0.69893800  0.75000000  1
  Te  Te7  1  0.64258600  0.94364900  0.75000000  1
  Mo  Mo8  1  0.14135500  0.16839700  0.25000000  1
  Mo  Mo9  1  0.02704200  0.85864500  0.25000000  1
  Mo  Mo10  1  0.83160300  0.97295800  0.25000000  1
  Mo  Mo11  1  0.16839700  0.02704200  0.75000000  1
  Mo  Mo12  1  0.97295800  0.14135500  0.75000000  1
  Mo  Mo13  1  0.85864500  0.83160300  0.75000000  1
