# generated using pymatgen
data_Tm5(Ge5Os2)2
_symmetry_space_group_name_H-M   'P 1'
_cell_length_a   13.10213200
_cell_length_b   13.10213200
_cell_length_c   4.23489000
_cell_angle_alpha   90.00000000
_cell_angle_beta   90.00000000
_cell_angle_gamma   90.00000000
_symmetry_Int_Tables_number   1
_chemical_formula_structural   Tm5(Ge5Os2)2
_chemical_formula_sum   'Tm10 Ge20 Os8'
_cell_volume   726.98604633
_cell_formula_units_Z   2
loop_
 _symmetry_equiv_pos_site_id
 _symmetry_equiv_pos_as_xyz
  1  'x, y, z'
loop_
 _atom_site_type_symbol
 _atom_site_label
 _atom_site_symmetry_multiplicity
 _atom_site_fract_x
 _atom_site_fract_y
 _atom_site_fract_z
 _atom_site_occupancy
  Tm  Tm0  1  0.50000000  0.50000000  0.00000000  1
  Tm  Tm1  1  0.00000000  0.00000000  0.00000000  1
  Tm  Tm2  1  0.67135500  0.17135500  0.50000000  1
  Tm  Tm3  1  0.32864500  0.82864500  0.50000000  1
  Tm  Tm4  1  0.17135500  0.32864500  0.50000000  1
  Tm  Tm5  1  0.82864500  0.67135500  0.50000000  1
  Tm  Tm6  1  0.88355500  0.38355500  0.50000000  1
  Tm  Tm7  1  0.11644500  0.61644500  0.50000000  1
  Tm  Tm8  1  0.38355500  0.11644500  0.50000000  1
  Tm  Tm9  1  0.61644500  0.88355500  0.50000000  1
  Ge  Ge10  1  0.56692100  0.06692100  0.00000000  1
  Ge  Ge11  1  0.43307900  0.93307900  0.00000000  1
  Ge  Ge12  1  0.06692100  0.43307900  0.00000000  1
  Ge  Ge13  1  0.93307900  0.56692100  0.00000000  1
  Ge  Ge14  1  0.66405200  0.69813600  0.00000000  1
  Ge  Ge15  1  0.33594800  0.30186400  0.00000000  1
  Ge  Ge16  1  0.16405200  0.80186400  0.00000000  1
  Ge  Ge17  1  0.83594800  0.19813600  0.00000000  1
  Ge  Ge18  1  0.30186400  0.66405200  0.00000000  1
  Ge  Ge19  1  0.69813600  0.33594800  0.00000000  1
  Ge  Ge20  1  0.19813600  0.16405200  0.00000000  1
  Ge  Ge21  1  0.80186400  0.83594800  0.00000000  1
  Ge  Ge22  1  0.65546900  0.50825600  0.50000000  1
  Ge  Ge23  1  0.34453100  0.49174400  0.50000000  1
  Ge  Ge24  1  0.15546900  0.99174400  0.50000000  1
  Ge  Ge25  1  0.84453100  0.00825600  0.50000000  1
  Ge  Ge26  1  0.49174400  0.65546900  0.50000000  1
  Ge  Ge27  1  0.50825600  0.34453100  0.50000000  1
  Ge  Ge28  1  0.00825600  0.15546900  0.50000000  1
  Ge  Ge29  1  0.99174400  0.84453100  0.50000000  1
  Os  Os30  1  0.74848100  0.51807500  0.00000000  1
  Os  Os31  1  0.25151900  0.48192500  0.00000000  1
  Os  Os32  1  0.24848100  0.98192500  0.00000000  1
  Os  Os33  1  0.75151900  0.01807500  0.00000000  1
  Os  Os34  1  0.48192500  0.74848100  0.00000000  1
  Os  Os35  1  0.51807500  0.25151900  0.00000000  1
  Os  Os36  1  0.01807500  0.24848100  0.00000000  1
  Os  Os37  1  0.98192500  0.75151900  0.00000000  1
