# generated using pymatgen
data_Dy5Zr3(Ni4As3)4
_symmetry_space_group_name_H-M   'P 1'
_cell_length_a   3.90413988
_cell_length_b   12.71316656
_cell_length_c   12.71507358
_cell_angle_alpha   119.99503669
_cell_angle_beta   90.00000000
_cell_angle_gamma   90.00000000
_symmetry_Int_Tables_number   1
_chemical_formula_structural   Dy5Zr3(Ni4As3)4
_chemical_formula_sum   'Dy5 Zr3 Ni16 As12'
_cell_volume   546.57571860
_cell_formula_units_Z   1
loop_
 _symmetry_equiv_pos_site_id
 _symmetry_equiv_pos_as_xyz
  1  'x, y, z'
loop_
 _atom_site_type_symbol
 _atom_site_label
 _atom_site_symmetry_multiplicity
 _atom_site_fract_x
 _atom_site_fract_y
 _atom_site_fract_z
 _atom_site_occupancy
  Dy  Dy0  1  0.50000000  0.99998698  0.18262058  1
  Dy  Dy1  1  0.50000000  0.18250150  0.00000000  1
  Dy  Dy2  1  0.50000000  0.81736641  0.81737942  1
  Dy  Dy3  1  -0.00000000  0.33337406  0.66663963  1
  Dy  Dy4  1  -0.00000000  0.66673443  0.33336037  1
  Zr  Zr5  1  -0.00000000  0.99991748  0.56228344  1
  Zr  Zr6  1  -0.00000000  0.56246502  1.00000000  1
  Zr  Zr7  1  -0.00000000  0.43763405  0.43771656  1
  Ni  Ni8  1  0.50000000  0.99997511  0.72337517  1
  Ni  Ni9  1  0.50000000  0.72337632  1.00000000  1
  Ni  Ni10  1  0.50000000  0.27659995  0.27662483  1
  Ni  Ni11  1  0.00000000  0.19265749  0.37520809  1
  Ni  Ni12  1  -0.00000000  0.18255516  0.80731368  1
  Ni  Ni13  1  0.00000000  0.62476940  0.81753824  1
  Ni  Ni14  1  0.00000000  0.81744940  0.62479191  1
  Ni  Ni15  1  0.00000000  0.37524149  0.19268632  1
  Ni  Ni16  1  -0.00000000  0.80723116  0.18246176  1
  Ni  Ni17  1  0.50000000  0.12099738  0.48178613  1
  Ni  Ni18  1  0.50000000  0.36084521  0.87905301  1
  Ni  Ni19  1  0.50000000  0.51820310  0.63910845  1
  Ni  Ni20  1  0.50000000  0.63921125  0.51821387  1
  Ni  Ni21  1  0.50000000  0.48179220  0.12094699  1
  Ni  Ni22  1  0.50000000  0.87909465  0.36089155  1
  Ni  Ni23  1  -0.00000000  0.99997312  -0.00000000  1
  As  As24  1  -0.00000000  0.00000364  0.82198267  1
  As  As25  1  -0.00000000  0.82197918  1.00000000  1
  As  As26  1  -0.00000000  0.17802097  0.17801733  1
  As  As27  1  0.50000000  0.30740564  0.47958332  1
  As  As28  1  0.50000000  0.17216231  0.69264428  1
  As  As29  1  0.50000000  0.52043359  0.82777359  1
  As  As30  1  0.50000000  0.82782232  0.52041668  1
  As  As31  1  0.50000000  0.47951803  0.30735572  1
  As  As32  1  0.50000000  0.69266000  0.17222641  1
  As  As33  1  -0.00000000  0.99995202  0.35481214  1
  As  As34  1  0.00000000  0.35485008  0.00000000  1
  As  As35  1  -0.00000000  0.64513988  0.64518786  1
