# generated using pymatgen
data_Li2Cr3SbO8
_symmetry_space_group_name_H-M   'P 1'
_cell_length_a   5.99245016
_cell_length_b   10.40470623
_cell_length_c   6.08347865
_cell_angle_alpha   106.52447318
_cell_angle_beta   60.49365728
_cell_angle_gamma   90.00010949
_symmetry_Int_Tables_number   1
_chemical_formula_structural   Li2Cr3SbO8
_chemical_formula_sum   'Li4 Cr6 Sb2 O16'
_cell_volume   311.98151541
_cell_formula_units_Z   2
loop_
 _symmetry_equiv_pos_site_id
 _symmetry_equiv_pos_as_xyz
  1  'x, y, z'
loop_
 _atom_site_type_symbol
 _atom_site_label
 _atom_site_symmetry_multiplicity
 _atom_site_fract_x
 _atom_site_fract_y
 _atom_site_fract_z
 _atom_site_occupancy
  Li  Li0  1  0.30418000  0.56523500  0.39151100  1
  Li  Li1  1  0.80417900  0.06522700  0.39150400  1
  Li  Li2  1  0.19568000  0.93477300  0.60849900  1
  Li  Li3  1  0.69568700  0.43476700  0.60849200  1
  Cr  Cr4  1  0.25024200  0.75062600  0.00017100  1
  Cr  Cr5  1  0.25041000  0.24937500  0.99983100  1
  Cr  Cr6  1  0.99872900  0.49999900  0.99999900  1
  Cr  Cr7  1  0.75025800  0.25059400  0.00015000  1
  Cr  Cr8  1  0.75041200  0.74940700  0.99984500  1
  Cr  Cr9  1  0.49876300  0.00000000  0.00000200  1
  Sb  Sb10  1  0.75024800  0.74999200  0.49997400  1
  Sb  Sb11  1  0.25023000  0.25000700  0.50002200  1
  O  O12  1  0.10339800  0.63241100  0.79539400  1
  O  O13  1  0.60341200  0.13238300  0.79536700  1
  O  O14  1  0.39877700  0.86761900  0.20463700  1
  O  O15  1  0.89879400  0.36759000  0.20460600  1
  O  O16  1  0.87812700  0.85808600  0.24366500  1
  O  O17  1  0.37814100  0.35806200  0.24363900  1
  O  O18  1  0.10471600  0.63191100  0.24219200  1
  O  O19  1  0.60470700  0.13189200  0.24219600  1
  O  O20  1  0.65141000  0.63192700  0.24394300  1
  O  O21  1  0.15140400  0.13191100  0.24395500  1
  O  O22  1  0.84690000  0.86810900  0.75780400  1
  O  O23  1  0.34691000  0.36808800  0.75780500  1
  O  O24  1  0.39536200  0.86808800  0.75604500  1
  O  O25  1  0.89535600  0.36807100  0.75605100  1
  O  O26  1  0.62177800  0.64193900  0.75636200  1
  O  O27  1  0.12179000  0.14191400  0.75633600  1
