# generated using pymatgen
data_Er11Ge10
_symmetry_space_group_name_H-M   'P 1'
_cell_length_a   11.20503381
_cell_length_b   11.20503381
_cell_length_c   11.20503381
_cell_angle_alpha   121.98970050
_cell_angle_beta   121.98970050
_cell_angle_gamma   86.58695664
_symmetry_Int_Tables_number   1
_chemical_formula_structural   Er11Ge10
_chemical_formula_sum   'Er22 Ge20'
_cell_volume   962.99750355
_cell_formula_units_Z   2
loop_
 _symmetry_equiv_pos_site_id
 _symmetry_equiv_pos_as_xyz
  1  'x, y, z'
loop_
 _atom_site_type_symbol
 _atom_site_label
 _atom_site_symmetry_multiplicity
 _atom_site_fract_x
 _atom_site_fract_y
 _atom_site_fract_z
 _atom_site_occupancy
  Er  Er0  1  0.80999000  0.06213900  0.25215000  1
  Er  Er1  1  0.80999000  0.55784000  0.74785000  1
  Er  Er2  1  0.06213900  0.80999000  0.25215000  1
  Er  Er3  1  0.55784000  0.80999000  0.74785000  1
  Er  Er4  1  0.19001000  0.93786100  0.74785000  1
  Er  Er5  1  0.19001000  0.44216000  0.25215000  1
  Er  Er6  1  0.93786100  0.19001000  0.74785000  1
  Er  Er7  1  0.44216000  0.19001000  0.25215000  1
  Er  Er8  1  0.17769700  0.17769700  0.35539400  1
  Er  Er9  1  0.82230300  0.82230300  0.64460600  1
  Er  Er10  1  0.17769700  0.82230300  0.00000000  1
  Er  Er11  1  0.82230300  0.17769700  0.00000000  1
  Er  Er12  1  0.66017700  0.66017700  0.00000000  1
  Er  Er13  1  0.33982300  0.33982300  0.00000000  1
  Er  Er14  1  0.60260000  0.92681900  0.32421900  1
  Er  Er15  1  0.60260000  0.27838000  0.67578100  1
  Er  Er16  1  0.92681900  0.60260000  0.32421900  1
  Er  Er17  1  0.27838000  0.60260000  0.67578100  1
  Er  Er18  1  0.39740000  0.07318100  0.67578100  1
  Er  Er19  1  0.39740000  0.72162000  0.32421900  1
  Er  Er20  1  0.07318100  0.39740000  0.67578100  1
  Er  Er21  1  0.72162000  0.39740000  0.32421900  1
  Ge  Ge22  1  0.36039700  0.00000000  0.36039700  1
  Ge  Ge23  1  0.63960300  0.00000000  0.63960300  1
  Ge  Ge24  1  0.00000000  0.63960300  0.63960300  1
  Ge  Ge25  1  0.00000000  0.36039700  0.36039700  1
  Ge  Ge26  1  0.88698800  0.88698800  0.00000000  1
  Ge  Ge27  1  0.11301200  0.11301200  0.00000000  1
  Ge  Ge28  1  0.37977800  0.37977800  0.75955600  1
  Ge  Ge29  1  0.62022200  0.62022200  0.24044400  1
  Ge  Ge30  1  0.37977800  0.62022200  0.00000000  1
  Ge  Ge31  1  0.62022200  0.37977800  0.00000000  1
  Ge  Ge32  1  0.75000000  0.25000000  0.50000000  1
  Ge  Ge33  1  0.25000000  0.75000000  0.50000000  1
  Ge  Ge34  1  0.89062000  0.89062000  0.41946700  1
  Ge  Ge35  1  0.47115300  0.47115300  0.58053300  1
  Ge  Ge36  1  0.89062000  0.47115300  0.00000000  1
  Ge  Ge37  1  0.47115300  0.89062000  0.00000000  1
  Ge  Ge38  1  0.10938000  0.10938000  0.58053300  1
  Ge  Ge39  1  0.52884700  0.52884700  0.41946700  1
  Ge  Ge40  1  0.10938000  0.52884700  0.00000000  1
  Ge  Ge41  1  0.52884700  0.10938000  0.00000000  1
