# generated using pymatgen
data_Cs2CeTa6(Br5O)3
_symmetry_space_group_name_H-M   'P 1'
_cell_length_a   9.65340615
_cell_length_b   9.65340615
_cell_length_c   18.41268600
_cell_angle_alpha   90.00000000
_cell_angle_beta   90.00000000
_cell_angle_gamma   120.00000101
_symmetry_Int_Tables_number   1
_chemical_formula_structural   Cs2CeTa6(Br5O)3
_chemical_formula_sum   'Cs4 Ce2 Ta12 Br30 O6'
_cell_volume   1485.96620192
_cell_formula_units_Z   2
loop_
 _symmetry_equiv_pos_site_id
 _symmetry_equiv_pos_as_xyz
  1  'x, y, z'
loop_
 _atom_site_type_symbol
 _atom_site_label
 _atom_site_symmetry_multiplicity
 _atom_site_fract_x
 _atom_site_fract_y
 _atom_site_fract_z
 _atom_site_occupancy
  Cs  Cs0  1  0.66666700  0.33333300  0.54697700  1
  Cs  Cs1  1  0.33333300  0.66666700  0.45302300  1
  Cs  Cs2  1  0.66666700  0.33333300  0.95302300  1
  Cs  Cs3  1  0.33333300  0.66666700  0.04697700  1
  Ce  Ce4  1  0.33333300  0.66666700  0.75000000  1
  Ce  Ce5  1  0.66666700  0.33333300  0.25000000  1
  Ta  Ta6  1  0.17178700  0.18875100  0.68687000  1
  Ta  Ta7  1  0.82821300  0.81124900  0.31313000  1
  Ta  Ta8  1  0.81124900  0.98303600  0.68687000  1
  Ta  Ta9  1  0.17178700  0.98303600  0.81313000  1
  Ta  Ta10  1  0.18875100  0.01696400  0.31313000  1
  Ta  Ta11  1  0.82821300  0.01696400  0.18687000  1
  Ta  Ta12  1  0.01696400  0.82821300  0.68687000  1
  Ta  Ta13  1  0.81124900  0.82821300  0.81313000  1
  Ta  Ta14  1  0.98303600  0.17178700  0.31313000  1
  Ta  Ta15  1  0.18875100  0.17178700  0.18687000  1
  Ta  Ta16  1  0.01696400  0.18875100  0.81313000  1
  Ta  Ta17  1  0.98303600  0.81124900  0.18687000  1
  Br  Br18  1  0.42553300  0.21276600  0.75000000  1
  Br  Br19  1  0.57446700  0.78723400  0.25000000  1
  Br  Br20  1  0.78723400  0.21276600  0.75000000  1
  Br  Br21  1  0.21276600  0.78723400  0.25000000  1
  Br  Br22  1  0.78723400  0.57446700  0.75000000  1
  Br  Br23  1  0.21276600  0.42553300  0.25000000  1
  Br  Br24  1  0.98150200  0.20238300  0.58783200  1
  Br  Br25  1  0.01849800  0.79761700  0.41216800  1
  Br  Br26  1  0.79761700  0.77911900  0.58783200  1
  Br  Br27  1  0.98150200  0.77911900  0.91216800  1
  Br  Br28  1  0.20238300  0.22088100  0.41216800  1
  Br  Br29  1  0.01849800  0.22088100  0.08783200  1
  Br  Br30  1  0.22088100  0.01849800  0.58783200  1
  Br  Br31  1  0.79761700  0.01849800  0.91216800  1
  Br  Br32  1  0.77911900  0.98150200  0.41216800  1
  Br  Br33  1  0.20238300  0.98150200  0.08783200  1
  Br  Br34  1  0.22088100  0.20238300  0.91216800  1
  Br  Br35  1  0.77911900  0.79761700  0.08783200  1
  Br  Br36  1  0.39429800  0.47028100  0.61823600  1
  Br  Br37  1  0.60570200  0.52971900  0.38176400  1
  Br  Br38  1  0.52971900  0.92401800  0.61823600  1
  Br  Br39  1  0.39429800  0.92401800  0.88176400  1
  Br  Br40  1  0.47028100  0.07598200  0.38176400  1
  Br  Br41  1  0.60570200  0.07598200  0.11823600  1
  Br  Br42  1  0.07598200  0.60570200  0.61823600  1
  Br  Br43  1  0.52971900  0.60570200  0.88176400  1
  Br  Br44  1  0.92401800  0.39429800  0.38176400  1
  Br  Br45  1  0.47028100  0.39429800  0.11823600  1
  Br  Br46  1  0.07598200  0.47028100  0.88176400  1
  Br  Br47  1  0.92401800  0.52971900  0.11823600  1
  O  O48  1  0.63914000  0.81957000  0.75000000  1
  O  O49  1  0.36086000  0.18043000  0.25000000  1
  O  O50  1  0.18043000  0.81957000  0.75000000  1
  O  O51  1  0.81957000  0.18043000  0.25000000  1
  O  O52  1  0.18043000  0.36086000  0.75000000  1
  O  O53  1  0.81957000  0.63914000  0.25000000  1
