# generated using pymatgen
data_Co4H
_symmetry_space_group_name_H-M   'P 1'
_cell_length_a   2.53328374
_cell_length_b   2.53328374
_cell_length_c   8.15319000
_cell_angle_alpha   90.00000000
_cell_angle_beta   90.00000000
_cell_angle_gamma   119.99999324
_symmetry_Int_Tables_number   1
_chemical_formula_structural   Co4H
_chemical_formula_sum   'Co4 H1'
_cell_volume   45.31332135
_cell_formula_units_Z   1
loop_
 _symmetry_equiv_pos_site_id
 _symmetry_equiv_pos_as_xyz
  1  'x, y, z'
loop_
 _atom_site_type_symbol
 _atom_site_label
 _atom_site_symmetry_multiplicity
 _atom_site_fract_x
 _atom_site_fract_y
 _atom_site_fract_z
 _atom_site_occupancy
  Co  Co0  1  0.33333300  0.66666700  0.86604200  1
  Co  Co1  1  0.33333300  0.66666700  0.37787200  1
  Co  Co2  1  0.66666700  0.33333300  0.13395800  1
  Co  Co3  1  0.66666700  0.33333300  0.62212800  1
  H  H4  1  0.00000000  0.00000000  0.00000000  1
