# generated using pymatgen
data_Nd(SiP3)2
_symmetry_space_group_name_H-M   'P 1'
_cell_length_a   14.93003606
_cell_length_b   14.93003606
_cell_length_c   10.36067800
_cell_angle_alpha   90.00000000
_cell_angle_beta   90.00000000
_cell_angle_gamma   140.13763909
_symmetry_Int_Tables_number   1
_chemical_formula_structural   Nd(SiP3)2
_chemical_formula_sum   'Nd8 Si16 P48'
_cell_volume   1480.23615545
_cell_formula_units_Z   8
loop_
 _symmetry_equiv_pos_site_id
 _symmetry_equiv_pos_as_xyz
  1  'x, y, z'
loop_
 _atom_site_type_symbol
 _atom_site_label
 _atom_site_symmetry_multiplicity
 _atom_site_fract_x
 _atom_site_fract_y
 _atom_site_fract_z
 _atom_site_occupancy
  Nd  Nd0  1  0.31076000  0.68924000  0.24093000  1
  Nd  Nd1  1  0.68924000  0.31076000  0.74093000  1
  Nd  Nd2  1  0.58049000  0.41951000  0.14793600  1
  Nd  Nd3  1  0.41951000  0.58049000  0.64793600  1
  Nd  Nd4  1  0.76599600  0.23400400  0.26206300  1
  Nd  Nd5  1  0.23400400  0.76599600  0.76206300  1
  Nd  Nd6  1  0.95964800  0.04035200  0.72322800  1
  Nd  Nd7  1  0.04035200  0.95964800  0.22322800  1
  Si  Si8  1  0.98777500  0.65754100  0.36460300  1
  Si  Si9  1  0.01222500  0.34245900  0.86460300  1
  Si  Si10  1  0.65754100  0.98777500  0.86460300  1
  Si  Si11  1  0.34245900  0.01222500  0.36460300  1
  Si  Si12  1  0.00685700  0.65001700  0.03177500  1
  Si  Si13  1  0.99314300  0.34998300  0.53177500  1
  Si  Si14  1  0.65001700  0.00685700  0.53177500  1
  Si  Si15  1  0.34998300  0.99314300  0.03177500  1
  Si  Si16  1  0.07970700  0.24091300  0.32374600  1
  Si  Si17  1  0.92029300  0.75908700  0.82374600  1
  Si  Si18  1  0.24091300  0.07970700  0.82374600  1
  Si  Si19  1  0.75908700  0.92029300  0.32374600  1
  Si  Si20  1  0.26328200  0.39620900  0.00481000  1
  Si  Si21  1  0.73671800  0.60379100  0.50481000  1
  Si  Si22  1  0.39620900  0.26328200  0.50481000  1
  Si  Si23  1  0.60379100  0.73671800  0.00481000  1
  P  P24  1  0.03572000  0.54952200  0.33380000  1
  P  P25  1  0.96428000  0.45047800  0.83380000  1
  P  P26  1  0.54952200  0.03572000  0.83380000  1
  P  P27  1  0.45047800  0.96428000  0.33380000  1
  P  P28  1  0.79997600  0.50666600  0.50086200  1
  P  P29  1  0.20002400  0.49333400  0.00086200  1
  P  P30  1  0.50666600  0.79997600  0.00086200  1
  P  P31  1  0.49333400  0.20002400  0.50086200  1
  P  P32  1  0.84347800  0.15652200  0.99991900  1
  P  P33  1  0.15652200  0.84347800  0.49991900  1
  P  P34  1  0.95849100  0.04150900  0.42580600  1
  P  P35  1  0.04150900  0.95849100  0.92580600  1
  P  P36  1  0.89703300  0.43051400  0.03460200  1
  P  P37  1  0.10296700  0.56948600  0.53460200  1
  P  P38  1  0.43051400  0.89703300  0.53460200  1
  P  P39  1  0.56948600  0.10296700  0.03460200  1
  P  P40  1  0.10632800  0.19865900  0.12439200  1
  P  P41  1  0.89367200  0.80134100  0.62439200  1
  P  P42  1  0.19865900  0.10632800  0.62439200  1
  P  P43  1  0.80134100  0.89367200  0.12439200  1
  P  P44  1  0.42429900  0.57570100  0.28422900  1
  P  P45  1  0.57570100  0.42429900  0.78422900  1
  P  P46  1  0.77205100  0.22794900  0.54692400  1
  P  P47  1  0.22794900  0.77205100  0.04692400  1
  P  P48  1  0.46963400  0.53036600  0.10884200  1
  P  P49  1  0.53036600  0.46963400  0.60884200  1
  P  P50  1  0.91500500  0.67276400  0.18314900  1
  P  P51  1  0.08499500  0.32723600  0.68314900  1
  P  P52  1  0.67276400  0.91500500  0.68314900  1
  P  P53  1  0.32723600  0.08499500  0.18314900  1
  P  P54  1  0.29856100  0.38348600  0.40024600  1
  P  P55  1  0.70143900  0.61651400  0.90024600  1
  P  P56  1  0.38348600  0.29856100  0.90024600  1
  P  P57  1  0.61651400  0.70143900  0.40024600  1
  P  P58  1  0.65483800  0.34516200  0.35143000  1
  P  P59  1  0.34516200  0.65483800  0.85143000  1
  P  P60  1  0.92268500  0.07731500  0.99934000  1
  P  P61  1  0.07731500  0.92268500  0.49934000  1
  P  P62  1  0.68112600  0.31887400  0.02142200  1
  P  P63  1  0.31887400  0.68112600  0.52142200  1
  P  P64  1  0.73004400  0.67090400  0.31566400  1
  P  P65  1  0.26995600  0.32909600  0.81566400  1
  P  P66  1  0.67090400  0.73004400  0.81566400  1
  P  P67  1  0.32909600  0.26995600  0.31566400  1
  P  P68  1  0.04635500  0.36136000  0.32200300  1
  P  P69  1  0.95364500  0.63864000  0.82200300  1
  P  P70  1  0.36136000  0.04635500  0.82200300  1
  P  P71  1  0.63864000  0.95364500  0.32200300  1
