# generated using pymatgen
data_Sr3(FeO3)2
_symmetry_space_group_name_H-M   'P 1'
_cell_length_a   3.95835506
_cell_length_b   3.95835507
_cell_length_c   10.46897771
_cell_angle_alpha   100.89744341
_cell_angle_beta   100.89744300
_cell_angle_gamma   89.99999592
_symmetry_Int_Tables_number   1
_chemical_formula_structural   Sr3(FeO3)2
_chemical_formula_sum   'Sr3 Fe2 O6'
_cell_volume   158.06261474
_cell_formula_units_Z   1
loop_
 _symmetry_equiv_pos_site_id
 _symmetry_equiv_pos_as_xyz
  1  'x, y, z'
loop_
 _atom_site_type_symbol
 _atom_site_label
 _atom_site_symmetry_multiplicity
 _atom_site_fract_x
 _atom_site_fract_y
 _atom_site_fract_z
 _atom_site_occupancy
  Sr  Sr0  1  0.68038351  0.68038451  0.36076902  1
  Sr  Sr1  1  0.31961449  0.31961549  0.63923198  1
  Sr  Sr2  1  0.49999900  0.50000000  0.00000000  1
  Fe  Fe3  1  0.89731737  0.89731537  0.79463274  1
  Fe  Fe4  1  0.10268363  0.10268263  0.20536726  1
  O  O5  1  0.80292082  0.80292082  0.60584064  1
  O  O6  1  0.19708018  0.19707918  0.39415836  1
  O  O7  1  0.91552903  0.41552903  0.83105706  1
  O  O8  1  0.41552803  0.91553003  0.83105706  1
  O  O9  1  0.08447197  0.58447097  0.16894194  1
  O  O10  1  0.58447097  0.08447097  0.16894194  1
