# generated using pymatgen
data_CsCoPO4
_symmetry_space_group_name_H-M   'P 1'
_cell_length_a   5.56354200
_cell_length_b   9.51591201
_cell_length_c   18.72744148
_cell_angle_alpha   90.37260354
_cell_angle_beta   90.00000000
_cell_angle_gamma   90.00000000
_symmetry_Int_Tables_number   1
_chemical_formula_structural   CsCoPO4
_chemical_formula_sum   'Cs8 Co8 P8 O32'
_cell_volume   991.45054008
_cell_formula_units_Z   8
loop_
 _symmetry_equiv_pos_site_id
 _symmetry_equiv_pos_as_xyz
  1  'x, y, z'
loop_
 _atom_site_type_symbol
 _atom_site_label
 _atom_site_symmetry_multiplicity
 _atom_site_fract_x
 _atom_site_fract_y
 _atom_site_fract_z
 _atom_site_occupancy
  Cs  Cs0  1  0.25704500  0.20662700  0.50399800  1
  Cs  Cs1  1  0.75704500  0.79337300  0.99600200  1
  Cs  Cs2  1  0.74295500  0.79337300  0.49600200  1
  Cs  Cs3  1  0.24295500  0.20662700  0.00399800  1
  Cs  Cs4  1  0.76707400  0.69014100  0.74959300  1
  Cs  Cs5  1  0.26707400  0.30985900  0.75040700  1
  Cs  Cs6  1  0.23292600  0.30985900  0.25040700  1
  Cs  Cs7  1  0.73292600  0.69014100  0.24959300  1
  Co  Co8  1  0.24294100  0.58380100  0.58799500  1
  Co  Co9  1  0.74294100  0.41619900  0.91200500  1
  Co  Co10  1  0.75705900  0.41619900  0.41200500  1
  Co  Co11  1  0.25705900  0.58380100  0.08799500  1
  Co  Co12  1  0.77518300  0.08909100  0.66744900  1
  Co  Co13  1  0.27518300  0.91090900  0.83255100  1
  Co  Co14  1  0.22481700  0.91090900  0.33255100  1
  Co  Co15  1  0.72481700  0.08909100  0.16744900  1
  P  P16  1  0.74527100  0.41728400  0.59661700  1
  P  P17  1  0.24527100  0.58271600  0.90338300  1
  P  P18  1  0.25472900  0.58271600  0.40338300  1
  P  P19  1  0.75472900  0.41728400  0.09661700  1
  P  P20  1  0.77304300  0.09352700  0.84577000  1
  P  P21  1  0.27304300  0.90647300  0.65423000  1
  P  P22  1  0.22695700  0.90647300  0.15423000  1
  P  P23  1  0.72695700  0.09352700  0.34577000  1
  O  O24  1  0.24999700  0.56089900  0.48444100  1
  O  O25  1  0.74999700  0.43910100  0.01555900  1
  O  O26  1  0.75000300  0.43910100  0.51555900  1
  O  O27  1  0.25000300  0.56089900  0.98444100  1
  O  O28  1  0.29300300  0.74122400  0.38773500  1
  O  O29  1  0.79300300  0.25877600  0.11226500  1
  O  O30  1  0.70699700  0.25877600  0.61226500  1
  O  O31  1  0.20699700  0.74122400  0.88773500  1
  O  O32  1  0.46340400  0.49531600  0.36905100  1
  O  O33  1  0.96340400  0.50468400  0.13094900  1
  O  O34  1  0.53659600  0.50468400  0.63094900  1
  O  O35  1  0.03659600  0.49531600  0.86905100  1
  O  O36  1  0.48520700  0.53024700  0.86871500  1
  O  O37  1  0.98520700  0.46975300  0.63128500  1
  O  O38  1  0.51479300  0.46975300  0.13128500  1
  O  O39  1  0.01479300  0.53024700  0.36871500  1
  O  O40  1  0.75202100  0.14741400  0.76773700  1
  O  O41  1  0.25202100  0.85258600  0.73226300  1
  O  O42  1  0.24797900  0.85258600  0.23226300  1
  O  O43  1  0.74797900  0.14741400  0.26773700  1
  O  O44  1  0.30367800  0.78649300  0.10267900  1
  O  O45  1  0.80367800  0.21350700  0.39732100  1
  O  O46  1  0.69632200  0.21350700  0.89732100  1
  O  O47  1  0.19632200  0.78649300  0.60267900  1
  O  O48  1  0.60570100  0.96447500  0.85878500  1
  O  O49  1  0.10570100  0.03552500  0.64121500  1
  O  O50  1  0.39429900  0.03552500  0.14121500  1
  O  O51  1  0.89429900  0.96447500  0.35878500  1
  O  O52  1  0.03651900  0.05153800  0.86334400  1
  O  O53  1  0.53651900  0.94846200  0.63665600  1
  O  O54  1  0.96348100  0.94846200  0.13665600  1
  O  O55  1  0.46348100  0.05153800  0.36334400  1
