# generated using pymatgen
data_Ce2NiGe3
_symmetry_space_group_name_H-M   'P 1'
_cell_length_a   4.17024700
_cell_length_b   8.31209150
_cell_length_c   8.31209155
_cell_angle_alpha   120.31040922
_cell_angle_beta   90.00000000
_cell_angle_gamma   90.00000000
_symmetry_Int_Tables_number   1
_chemical_formula_structural   Ce2NiGe3
_chemical_formula_sum   'Ce4 Ni2 Ge6'
_cell_volume   248.74027054
_cell_formula_units_Z   2
loop_
 _symmetry_equiv_pos_site_id
 _symmetry_equiv_pos_as_xyz
  1  'x, y, z'
loop_
 _atom_site_type_symbol
 _atom_site_label
 _atom_site_symmetry_multiplicity
 _atom_site_fract_x
 _atom_site_fract_y
 _atom_site_fract_z
 _atom_site_occupancy
  Ce  Ce0  1  0.50000000  0.00003000  0.00003000  1
  Ce  Ce1  1  0.50000000  0.00004600  0.50165100  1
  Ce  Ce2  1  0.50000000  0.49830300  0.49830300  1
  Ce  Ce3  1  0.50000000  0.50165100  0.00004600  1
  Ni  Ni4  1  0.00000000  0.66637200  0.33364300  1
  Ni  Ni5  1  0.00000000  0.33364300  0.66637200  1
  Ge  Ge6  1  0.00000000  0.82767300  0.17334800  1
  Ge  Ge7  1  0.00000000  0.82604500  0.65420700  1
  Ge  Ge8  1  0.00000000  0.34583400  0.17294800  1
  Ge  Ge9  1  0.00000000  0.17334800  0.82767300  1
  Ge  Ge10  1  0.00000000  0.65420700  0.82604500  1
  Ge  Ge11  1  0.00000000  0.17294800  0.34583400  1
