# generated using pymatgen
data_Li8Nd7Ge10
_symmetry_space_group_name_H-M   'P 1'
_cell_length_a   17.13085380
_cell_length_b   17.13085380
_cell_length_c   4.43765100
_cell_angle_alpha   90.00000000
_cell_angle_beta   90.00000000
_cell_angle_gamma   156.67222423
_symmetry_Int_Tables_number   1
_chemical_formula_structural   Li8Nd7Ge10
_chemical_formula_sum   'Li8 Nd7 Ge10'
_cell_volume   515.69883114
_cell_formula_units_Z   1
loop_
 _symmetry_equiv_pos_site_id
 _symmetry_equiv_pos_as_xyz
  1  'x, y, z'
loop_
 _atom_site_type_symbol
 _atom_site_label
 _atom_site_symmetry_multiplicity
 _atom_site_fract_x
 _atom_site_fract_y
 _atom_site_fract_z
 _atom_site_occupancy
  Li  Li0  1  0.26529600  0.11637800  0.50000000  1
  Li  Li1  1  0.73470400  0.88362200  0.50000000  1
  Li  Li2  1  0.11637800  0.26529600  0.50000000  1
  Li  Li3  1  0.88362200  0.73470400  0.50000000  1
  Li  Li4  1  0.45622900  0.16911200  0.00000000  1
  Li  Li5  1  0.54377100  0.83088800  0.00000000  1
  Li  Li6  1  0.16911200  0.45622900  0.00000000  1
  Li  Li7  1  0.83088800  0.54377100  0.00000000  1
  Nd  Nd8  1  0.16087000  0.83913000  0.50000000  1
  Nd  Nd9  1  0.83913000  0.16087000  0.50000000  1
  Nd  Nd10  1  0.27907400  0.72092600  0.50000000  1
  Nd  Nd11  1  0.72092600  0.27907400  0.50000000  1
  Nd  Nd12  1  0.44260100  0.55739900  0.00000000  1
  Nd  Nd13  1  0.55739900  0.44260100  0.00000000  1
  Nd  Nd14  1  0.00000000  0.00000000  0.00000000  1
  Ge  Ge15  1  0.39784500  0.96712600  0.00000000  1
  Ge  Ge16  1  0.60215500  0.03287400  0.00000000  1
  Ge  Ge17  1  0.96712600  0.39784500  0.00000000  1
  Ge  Ge18  1  0.03287400  0.60215500  0.00000000  1
  Ge  Ge19  1  0.37331000  0.62669000  0.50000000  1
  Ge  Ge20  1  0.62669000  0.37331000  0.50000000  1
  Ge  Ge21  1  0.09398400  0.90601600  0.00000000  1
  Ge  Ge22  1  0.90601600  0.09398400  0.00000000  1
  Ge  Ge23  1  0.31566300  0.31566300  0.50000000  1
  Ge  Ge24  1  0.68433700  0.68433700  0.50000000  1
