# generated using pymatgen
data_Nd2MnFeO6
_symmetry_space_group_name_H-M   'P 1'
_cell_length_a   5.81385400
_cell_length_b   5.48893200
_cell_length_c   9.46790764
_cell_angle_alpha   54.84315620
_cell_angle_beta   90.00000000
_cell_angle_gamma   90.00000000
_symmetry_Int_Tables_number   1
_chemical_formula_structural   Nd2MnFeO6
_chemical_formula_sum   'Nd4 Mn2 Fe2 O12'
_cell_volume   247.02199822
_cell_formula_units_Z   2
loop_
 _symmetry_equiv_pos_site_id
 _symmetry_equiv_pos_as_xyz
  1  'x, y, z'
loop_
 _atom_site_type_symbol
 _atom_site_label
 _atom_site_symmetry_multiplicity
 _atom_site_fract_x
 _atom_site_fract_y
 _atom_site_fract_z
 _atom_site_occupancy
  Nd  Nd0  1  0.56497000  0.73479500  0.74979000  1
  Nd  Nd1  1  0.06497000  0.26520500  0.75021000  1
  Nd  Nd2  1  0.43503000  0.26520500  0.25021000  1
  Nd  Nd3  1  0.93503000  0.73479500  0.24979000  1
  Mn  Mn4  1  0.50000000  0.00000000  0.00000000  1
  Mn  Mn5  1  0.00000000  0.00000000  0.50000000  1
  Fe  Fe6  1  0.50000000  0.50000000  0.50000000  1
  Fe  Fe7  1  0.00000000  0.50000000  0.00000000  1
  O  O8  1  0.18569900  0.73744900  0.05130300  1
  O  O9  1  0.68569900  0.26255100  0.44869700  1
  O  O10  1  0.80361500  0.65718200  0.54725800  1
  O  O11  1  0.30361500  0.34281800  0.95274200  1
  O  O12  1  0.81430100  0.26255100  0.94869700  1
  O  O13  1  0.31430100  0.73744900  0.55130300  1
  O  O14  1  0.19638500  0.34281800  0.45274200  1
  O  O15  1  0.69638500  0.65718200  0.04725800  1
  O  O16  1  0.97388700  0.84783800  0.74588900  1
  O  O17  1  0.47388700  0.15216200  0.75411100  1
  O  O18  1  0.02611300  0.15216200  0.25411100  1
  O  O19  1  0.52611300  0.84783800  0.24588900  1
