# generated using pymatgen
data_CaTiV(PO4)3
_symmetry_space_group_name_H-M   'P 1'
_cell_length_a   8.87059187
_cell_length_b   8.87059173
_cell_length_c   8.87059125
_cell_angle_alpha   58.46360295
_cell_angle_beta   58.46360429
_cell_angle_gamma   58.46360580
_symmetry_Int_Tables_number   1
_chemical_formula_structural   CaTiV(PO4)3
_chemical_formula_sum   'Ca2 Ti2 V2 P6 O24'
_cell_volume   476.21269316
_cell_formula_units_Z   2
loop_
 _symmetry_equiv_pos_site_id
 _symmetry_equiv_pos_as_xyz
  1  'x, y, z'
loop_
 _atom_site_type_symbol
 _atom_site_label
 _atom_site_symmetry_multiplicity
 _atom_site_fract_x
 _atom_site_fract_y
 _atom_site_fract_z
 _atom_site_occupancy
  Ca  Ca0  1  0.99832400  0.99832400  0.99832400  1
  Ca  Ca1  1  0.49832400  0.49832400  0.49832400  1
  Ti  Ti2  1  0.14737500  0.14737500  0.14737500  1
  Ti  Ti3  1  0.64737500  0.64737500  0.64737500  1
  V  V4  1  0.35441300  0.35441300  0.35441300  1
  V  V5  1  0.85441300  0.85441300  0.85441300  1
  P  P6  1  0.04032900  0.45957200  0.75195100  1
  P  P7  1  0.45957200  0.75195100  0.04032900  1
  P  P8  1  0.75195100  0.04032900  0.45957200  1
  P  P9  1  0.25195100  0.95957200  0.54032900  1
  P  P10  1  0.54032900  0.25195100  0.95957200  1
  P  P11  1  0.95957200  0.54032900  0.25195100  1
  O  O12  1  0.11999500  0.50851700  0.29613500  1
  O  O13  1  0.29613500  0.11999500  0.50851700  1
  O  O14  1  0.05613600  0.27166100  0.92237200  1
  O  O15  1  0.50851700  0.29613500  0.11999500  1
  O  O16  1  0.00851700  0.61999500  0.79613500  1
  O  O17  1  0.22636600  0.43512900  0.58452200  1
  O  O18  1  0.27166100  0.92237200  0.05613600  1
  O  O19  1  0.43512900  0.58452200  0.22636600  1
  O  O20  1  0.20603300  0.99883300  0.37233400  1
  O  O21  1  0.58452200  0.22636600  0.43512900  1
  O  O22  1  0.08452200  0.93512900  0.72636600  1
  O  O23  1  0.37233400  0.20603300  0.99883300  1
  O  O24  1  0.61999500  0.79613500  0.00851700  1
  O  O25  1  0.92237200  0.05613600  0.27166100  1
  O  O26  1  0.42237200  0.77166100  0.55613600  1
  O  O27  1  0.79613500  0.00851700  0.61999500  1
  O  O28  1  0.55613600  0.42237200  0.77166100  1
  O  O29  1  0.72636600  0.08452200  0.93512900  1
  O  O30  1  0.77166100  0.55613600  0.42237200  1
  O  O31  1  0.99883300  0.37233400  0.20603300  1
  O  O32  1  0.49883300  0.70603300  0.87233400  1
  O  O33  1  0.93512900  0.72636600  0.08452200  1
  O  O34  1  0.70603300  0.87233400  0.49883300  1
  O  O35  1  0.87233400  0.49883300  0.70603300  1
