# generated using pymatgen
data_TmUTe6
_symmetry_space_group_name_H-M   'P 1'
_cell_length_a   13.09233714
_cell_length_b   13.09233714
_cell_length_c   4.36746100
_cell_angle_alpha   90.00000000
_cell_angle_beta   90.00000000
_cell_angle_gamma   160.83663972
_symmetry_Int_Tables_number   1
_chemical_formula_structural   TmUTe6
_chemical_formula_sum   'Tm1 U1 Te6'
_cell_volume   245.74511235
_cell_formula_units_Z   1
loop_
 _symmetry_equiv_pos_site_id
 _symmetry_equiv_pos_as_xyz
  1  'x, y, z'
loop_
 _atom_site_type_symbol
 _atom_site_label
 _atom_site_symmetry_multiplicity
 _atom_site_fract_x
 _atom_site_fract_y
 _atom_site_fract_z
 _atom_site_occupancy
  Tm  Tm0  1  0.16882900  0.83117100  0.50000000  1
  U  U1  1  0.83112500  0.16887500  0.00000000  1
  Te  Te2  1  0.42392500  0.57607500  0.00000000  1
  Te  Te3  1  0.57591100  0.42408900  0.50000000  1
  Te  Te4  1  0.70636900  0.29363100  0.00000000  1
  Te  Te5  1  0.29432500  0.70567500  0.50000000  1
  Te  Te6  1  0.07534400  0.92465600  0.00000000  1
  Te  Te7  1  0.92417200  0.07582800  0.50000000  1
