# generated using pymatgen
data_K3FePCO7
_symmetry_space_group_name_H-M   'P 1'
_cell_length_a   5.67545640
_cell_length_b   9.66300149
_cell_length_c   14.00123958
_cell_angle_alpha   90.03132752
_cell_angle_beta   90.00133200
_cell_angle_gamma   89.83074079
_symmetry_Int_Tables_number   1
_chemical_formula_structural   K3FePCO7
_chemical_formula_sum   'K12 Fe4 P4 C4 O28'
_cell_volume   767.85172657
_cell_formula_units_Z   4
loop_
 _symmetry_equiv_pos_site_id
 _symmetry_equiv_pos_as_xyz
  1  'x, y, z'
loop_
 _atom_site_type_symbol
 _atom_site_label
 _atom_site_symmetry_multiplicity
 _atom_site_fract_x
 _atom_site_fract_y
 _atom_site_fract_z
 _atom_site_occupancy
  K  K0  1  0.75731500  0.07216000  0.12328700  1
  K  K1  1  0.75644300  0.07267600  0.62663800  1
  K  K2  1  0.24249200  0.92780500  0.37632000  1
  K  K3  1  0.24373300  0.92714000  0.87345300  1
  K  K4  1  0.25474200  0.28296100  0.00297000  1
  K  K5  1  0.25496100  0.28452600  0.50667500  1
  K  K6  1  0.25502000  0.28375300  0.24480300  1
  K  K7  1  0.25546000  0.28379600  0.74545800  1
  K  K8  1  0.74411100  0.71653900  0.25524900  1
  K  K9  1  0.74529200  0.71604400  0.75467800  1
  K  K10  1  0.74432600  0.71685600  0.49696700  1
  K  K11  1  0.74555900  0.71585300  0.99343000  1
  Fe  Fe12  1  0.76242900  0.35267300  0.87372100  1
  Fe  Fe13  1  0.23792900  0.64713900  0.62626600  1
  Fe  Fe14  1  0.75919700  0.35500400  0.37631700  1
  Fe  Fe15  1  0.24043800  0.64488500  0.12378100  1
  P  P16  1  0.72973100  0.42106700  0.12294900  1
  P  P17  1  0.72959900  0.41835100  0.62695700  1
  P  P18  1  0.26982800  0.57905400  0.37690700  1
  P  P19  1  0.27100600  0.58165000  0.87325700  1
  C  C20  1  0.74153600  0.08227600  0.37461500  1
  C  C21  1  0.74372700  0.07938100  0.87542300  1
  C  C22  1  0.25852300  0.91780800  0.12540600  1
  C  C23  1  0.25625600  0.92049000  0.62449500  1
  O  O24  1  0.25631700  0.05137100  0.12499400  1
  O  O25  1  0.26004500  0.05408900  0.62509200  1
  O  O26  1  0.74326800  0.94867800  0.37475200  1
  O  O27  1  0.73987500  0.94573000  0.87500100  1
  O  O28  1  0.93830300  0.15347900  0.37425100  1
  O  O29  1  0.94309600  0.14739100  0.87591700  1
  O  O30  1  0.06192800  0.84639500  0.12588800  1
  O  O31  1  0.05691800  0.85237800  0.62390100  1
  O  O32  1  0.54506600  0.15319800  0.37480700  1
  O  O33  1  0.54861300  0.15234500  0.87541000  1
  O  O34  1  0.45523800  0.84711600  0.12542300  1
  O  O35  1  0.45140300  0.84751500  0.62434100  1
  O  O36  1  0.47487700  0.48522900  0.12338900  1
  O  O37  1  0.47358700  0.47783500  0.62641700  1
  O  O38  1  0.52473000  0.51490100  0.37616400  1
  O  O39  1  0.52704500  0.52226900  0.87419800  1
  O  O40  1  0.08641500  0.46078300  0.37552900  1
  O  O41  1  0.08877400  0.46253700  0.87423800  1
  O  O42  1  0.91305900  0.53928900  0.12456500  1
  O  O43  1  0.91167700  0.53748300  0.62573500  1
  O  O44  1  0.75781400  0.33021700  0.03112700  1
  O  O45  1  0.76221300  0.32279600  0.53799300  1
  O  O46  1  0.75711700  0.32556600  0.21175800  1
  O  O47  1  0.76193100  0.32742000  0.71890200  1
  O  O48  1  0.24185200  0.67440200  0.28809000  1
  O  O49  1  0.23941200  0.67253100  0.78123600  1
  O  O50  1  0.24217600  0.66995800  0.46869400  1
  O  O51  1  0.23759900  0.67720900  0.96216800  1
