# generated using pymatgen
data_Sr5Sb2As
_symmetry_space_group_name_H-M   'P 1'
_cell_length_a   8.68458600
_cell_length_b   9.92068200
_cell_length_c   13.29807800
_cell_angle_alpha   90.00000000
_cell_angle_beta   90.00000000
_cell_angle_gamma   90.00000000
_symmetry_Int_Tables_number   1
_chemical_formula_structural   Sr5Sb2As
_chemical_formula_sum   'Sr20 Sb8 As4'
_cell_volume   1145.72271912
_cell_formula_units_Z   4
loop_
 _symmetry_equiv_pos_site_id
 _symmetry_equiv_pos_as_xyz
  1  'x, y, z'
loop_
 _atom_site_type_symbol
 _atom_site_label
 _atom_site_symmetry_multiplicity
 _atom_site_fract_x
 _atom_site_fract_y
 _atom_site_fract_z
 _atom_site_occupancy
  Sr  Sr0  1  0.04371800  0.75000000  0.50211100  1
  Sr  Sr1  1  0.95628200  0.25000000  0.49788900  1
  Sr  Sr2  1  0.54371800  0.25000000  0.99788900  1
  Sr  Sr3  1  0.45628200  0.75000000  0.00211100  1
  Sr  Sr4  1  0.86013100  0.75000000  0.79829000  1
  Sr  Sr5  1  0.13986900  0.25000000  0.20171000  1
  Sr  Sr6  1  0.36013100  0.25000000  0.70171000  1
  Sr  Sr7  1  0.63986900  0.75000000  0.29829000  1
  Sr  Sr8  1  0.68634100  0.53637300  0.57553400  1
  Sr  Sr9  1  0.31365900  0.46362700  0.42446600  1
  Sr  Sr10  1  0.18634100  0.46362700  0.92446600  1
  Sr  Sr11  1  0.31365900  0.03637300  0.42446600  1
  Sr  Sr12  1  0.81365900  0.53637300  0.07553400  1
  Sr  Sr13  1  0.68634100  0.96362700  0.57553400  1
  Sr  Sr14  1  0.81365900  0.96362700  0.07553400  1
  Sr  Sr15  1  0.18634100  0.03637300  0.92446600  1
  Sr  Sr16  1  0.33520800  0.75000000  0.71511000  1
  Sr  Sr17  1  0.66479200  0.25000000  0.28489000  1
  Sr  Sr18  1  0.83520800  0.25000000  0.78489000  1
  Sr  Sr19  1  0.16479200  0.75000000  0.21511000  1
  Sb  Sb20  1  0.56605800  0.50964600  0.82914800  1
  Sb  Sb21  1  0.43394200  0.49035400  0.17085200  1
  Sb  Sb22  1  0.06605800  0.49035400  0.67085200  1
  Sb  Sb23  1  0.43394200  0.00964600  0.17085200  1
  Sb  Sb24  1  0.93394200  0.50964600  0.32914800  1
  Sb  Sb25  1  0.56605800  0.99035400  0.82914800  1
  Sb  Sb26  1  0.93394200  0.99035400  0.32914800  1
  Sb  Sb27  1  0.06605800  0.00964600  0.67085200  1
  As  As28  1  0.07351700  0.75000000  0.98620600  1
  As  As29  1  0.92648300  0.25000000  0.01379400  1
  As  As30  1  0.57351700  0.25000000  0.51379400  1
  As  As31  1  0.42648300  0.75000000  0.48620600  1
