# generated using pymatgen
data_LaPrCr2O6
_symmetry_space_group_name_H-M   'P 1'
_cell_length_a   5.56844900
_cell_length_b   5.59880700
_cell_length_c   7.88302900
_cell_angle_alpha   90.00000000
_cell_angle_beta   90.00000000
_cell_angle_gamma   90.00000000
_symmetry_Int_Tables_number   1
_chemical_formula_structural   LaPrCr2O6
_chemical_formula_sum   'La2 Pr2 Cr4 O12'
_cell_volume   245.76660351
_cell_formula_units_Z   2
loop_
 _symmetry_equiv_pos_site_id
 _symmetry_equiv_pos_as_xyz
  1  'x, y, z'
loop_
 _atom_site_type_symbol
 _atom_site_label
 _atom_site_symmetry_multiplicity
 _atom_site_fract_x
 _atom_site_fract_y
 _atom_site_fract_z
 _atom_site_occupancy
  La  La0  1  0.24221100  0.46703100  0.50000000  1
  La  La1  1  0.75778900  0.96703100  0.50000000  1
  Pr  Pr2  1  0.25987500  0.54010800  0.00000000  1
  Pr  Pr3  1  0.74012500  0.04010800  0.00000000  1
  Cr  Cr4  1  0.75045300  0.50034000  0.75099400  1
  Cr  Cr5  1  0.24954700  0.00034000  0.24900600  1
  Cr  Cr6  1  0.75045300  0.50034000  0.24900600  1
  Cr  Cr7  1  0.24954700  0.00034000  0.75099400  1
  O  O8  1  0.16559300  0.97957000  0.00000000  1
  O  O9  1  0.83440700  0.47957000  0.00000000  1
  O  O10  1  0.33050700  0.01721600  0.50000000  1
  O  O11  1  0.66949300  0.51721600  0.50000000  1
  O  O12  1  0.03729400  0.71281600  0.29255800  1
  O  O13  1  0.96270600  0.21281600  0.70744200  1
  O  O14  1  0.46509700  0.28488000  0.79645100  1
  O  O15  1  0.53490300  0.78488000  0.20354900  1
  O  O16  1  0.46509700  0.28488000  0.20354900  1
  O  O17  1  0.53490300  0.78488000  0.79645100  1
  O  O18  1  0.03729400  0.71281600  0.70744200  1
  O  O19  1  0.96270600  0.21281600  0.29255800  1
