# generated using pymatgen
data_CsTlF4
_symmetry_space_group_name_H-M   'P 1'
_cell_length_a   6.68757833
_cell_length_b   8.61264382
_cell_length_c   8.68475136
_cell_angle_alpha   90.00000000
_cell_angle_beta   90.00000000
_cell_angle_gamma   90.00000000
_symmetry_Int_Tables_number   1
_chemical_formula_structural   CsTlF4
_chemical_formula_sum   'Cs4 Tl4 F16'
_cell_volume   500.22196547
_cell_formula_units_Z   4
loop_
 _symmetry_equiv_pos_site_id
 _symmetry_equiv_pos_as_xyz
  1  'x, y, z'
loop_
 _atom_site_type_symbol
 _atom_site_label
 _atom_site_symmetry_multiplicity
 _atom_site_fract_x
 _atom_site_fract_y
 _atom_site_fract_z
 _atom_site_occupancy
  Cs  Cs0  1  0.48821323  0.80300213  0.69670148  1
  Cs  Cs1  1  0.51178677  0.19699787  0.19670148  1
  Cs  Cs2  1  0.51178677  0.30300213  0.69670148  1
  Cs  Cs3  1  0.48821323  0.69699787  0.19670148  1
  Tl  Tl4  1  0.99995976  0.00003149  0.94666984  1
  Tl  Tl5  1  0.00004024  0.99996851  0.44666984  1
  Tl  Tl6  1  0.00004024  0.50003149  0.94666984  1
  Tl  Tl7  1  0.99995976  0.49996851  0.44666984  1
  F  F8  1  0.70706377  0.93427962  0.00332864  1
  F  F9  1  0.29293623  0.06572038  0.50332864  1
  F  F10  1  0.29293623  0.43427962  0.00332864  1
  F  F11  1  0.70706377  0.56572038  0.50332864  1
  F  F12  1  0.90216151  0.97977499  0.69665717  1
  F  F13  1  0.09783849  0.02022501  0.19665717  1
  F  F14  1  0.09783849  0.47977499  0.69665717  1
  F  F15  1  0.90216151  0.52022501  0.19665717  1
  F  F16  1  0.88286823  0.25004457  0.94671964  1
  F  F17  1  0.11713177  0.74995543  0.44671964  1
  F  F18  1  0.11713177  0.75004457  0.94671964  1
  F  F19  1  0.88286823  0.24995543  0.44671964  1
  F  F20  1  0.70719133  0.56582569  0.88992324  1
  F  F21  1  0.29280867  0.43417431  0.38992324  1
  F  F22  1  0.29280867  0.06582569  0.88992324  1
  F  F23  1  0.70719133  0.93417431  0.38992324  1
