# generated using pymatgen
data_CdGeN2
_symmetry_space_group_name_H-M   'P 1'
_cell_length_a   5.68636394
_cell_length_b   6.95430161
_cell_length_c   5.49228800
_cell_angle_alpha   90.00000000
_cell_angle_beta   90.00000000
_cell_angle_gamma   90.00000000
_symmetry_Int_Tables_number   1
_chemical_formula_structural   CdGeN2
_chemical_formula_sum   'Cd4 Ge4 N8'
_cell_volume   217.19082582
_cell_formula_units_Z   4
loop_
 _symmetry_equiv_pos_site_id
 _symmetry_equiv_pos_as_xyz
  1  'x, y, z'
loop_
 _atom_site_type_symbol
 _atom_site_label
 _atom_site_symmetry_multiplicity
 _atom_site_fract_x
 _atom_site_fract_y
 _atom_site_fract_z
 _atom_site_occupancy
  Cd  Cd0  1  0.58026190  0.87612173  0.99758587  1
  Cd  Cd1  1  0.41973810  0.12387827  0.49758587  1
  Cd  Cd2  1  0.91973810  0.37612173  0.49758587  1
  Cd  Cd3  1  0.08026190  0.62387827  0.99758587  1
  Ge  Ge4  1  0.56609610  0.37457076  0.00017338  1
  Ge  Ge5  1  0.43390390  0.62542924  0.50017338  1
  Ge  Ge6  1  0.93390390  0.87457076  0.50017338  1
  Ge  Ge7  1  0.06609610  0.12542924  0.00017338  1
  N  N8  1  0.54788333  0.40709331  0.34029727  1
  N  N9  1  0.45211667  0.59290669  0.84029627  1
  N  N10  1  0.95211667  0.90709331  0.84029627  1
  N  N11  1  0.04788333  0.09290669  0.34029727  1
  N  N12  1  0.61462117  0.84277268  0.41194448  1
  N  N13  1  0.38537883  0.15722732  0.91194448  1
  N  N14  1  0.88537883  0.34277268  0.91194448  1
  N  N15  1  0.11462117  0.65722732  0.41194448  1
