# generated using pymatgen
data_NaSm3Ti2(SbO7)2
_symmetry_space_group_name_H-M   'P 1'
_cell_length_a   7.33255446
_cell_length_b   7.33255446
_cell_length_c   7.29540348
_cell_angle_alpha   60.78236926
_cell_angle_beta   60.78236926
_cell_angle_gamma   60.99675905
_symmetry_Int_Tables_number   1
_chemical_formula_structural   NaSm3Ti2(SbO7)2
_chemical_formula_sum   'Na1 Sm3 Ti2 Sb2 O14'
_cell_volume   282.69770113
_cell_formula_units_Z   1
loop_
 _symmetry_equiv_pos_site_id
 _symmetry_equiv_pos_as_xyz
  1  'x, y, z'
loop_
 _atom_site_type_symbol
 _atom_site_label
 _atom_site_symmetry_multiplicity
 _atom_site_fract_x
 _atom_site_fract_y
 _atom_site_fract_z
 _atom_site_occupancy
  Na  Na0  1  0.00000000  0.00000000  0.00000000  1
  Sm  Sm1  1  0.00000000  0.00000000  0.50000000  1
  Sm  Sm2  1  0.50000000  0.00000000  0.00000000  1
  Sm  Sm3  1  0.00000000  0.50000000  0.00000000  1
  Ti  Ti4  1  0.50000000  0.50000000  0.50000000  1
  Ti  Ti5  1  0.50000000  0.50000000  0.00000000  1
  Sb  Sb6  1  0.00000000  0.50000000  0.50000000  1
  Sb  Sb7  1  0.50000000  0.00000000  0.50000000  1
  O  O8  1  0.57060800  0.57060800  0.18217400  1
  O  O9  1  0.17257900  0.17257900  0.57090500  1
  O  O10  1  0.17625500  0.57701900  0.57649000  1
  O  O11  1  0.56162600  0.17982500  0.17872200  1
  O  O12  1  0.17982500  0.56162600  0.17872200  1
  O  O13  1  0.57701900  0.17625500  0.57649000  1
  O  O14  1  0.42939200  0.42939200  0.81782600  1
  O  O15  1  0.82742100  0.82742100  0.42909500  1
  O  O16  1  0.82374500  0.42298100  0.42351000  1
  O  O17  1  0.43837400  0.82017500  0.82127800  1
  O  O18  1  0.82017500  0.43837400  0.82127800  1
  O  O19  1  0.42298100  0.82374500  0.42351000  1
  O  O20  1  0.86999700  0.86999700  0.87297100  1
  O  O21  1  0.13000300  0.13000300  0.12702900  1
