# generated using pymatgen
data_YB3(H9N)2
_symmetry_space_group_name_H-M   'P 1'
_cell_length_a   7.73517804
_cell_length_b   12.26365740
_cell_length_c   19.78612654
_cell_angle_alpha   90.00000000
_cell_angle_beta   90.00000000
_cell_angle_gamma   90.00000000
_symmetry_Int_Tables_number   1
_chemical_formula_structural   YB3(H9N)2
_chemical_formula_sum   'Y8 B24 H144 N16'
_cell_volume   1876.94309528
_cell_formula_units_Z   8
loop_
 _symmetry_equiv_pos_site_id
 _symmetry_equiv_pos_as_xyz
  1  'x, y, z'
loop_
 _atom_site_type_symbol
 _atom_site_label
 _atom_site_symmetry_multiplicity
 _atom_site_fract_x
 _atom_site_fract_y
 _atom_site_fract_z
 _atom_site_occupancy
  Y  Y0  1  0.53270840  0.40750821  0.35436644  1
  Y  Y1  1  0.03270840  0.09249179  0.64563356  1
  Y  Y2  1  0.46729160  0.90750821  0.14563356  1
  Y  Y3  1  0.96729160  0.59249179  0.85436644  1
  Y  Y4  1  0.46729160  0.59249179  0.64563356  1
  Y  Y5  1  0.96729160  0.90750821  0.35436644  1
  Y  Y6  1  0.53270840  0.09249179  0.85436644  1
  Y  Y7  1  0.03270840  0.40750821  0.14563356  1
  B  B8  1  0.20612513  0.60088781  0.74670582  1
  B  B9  1  0.70612513  0.89911219  0.25329418  1
  B  B10  1  0.79387487  0.10088781  0.75329418  1
  B  B11  1  0.29387487  0.39911219  0.24670582  1
  B  B12  1  0.79387487  0.39911219  0.25329418  1
  B  B13  1  0.29387487  0.10088781  0.74670582  1
  B  B14  1  0.20612513  0.89911219  0.24670582  1
  B  B15  1  0.70612513  0.60088781  0.75329418  1
  B  B16  1  0.23907982  0.61735318  0.55385189  1
  B  B17  1  0.73907982  0.88264682  0.44614811  1
  B  B18  1  0.76092018  0.11735318  0.94614811  1
  B  B19  1  0.26092018  0.38264682  0.05385189  1
  B  B20  1  0.76092018  0.38264682  0.44614811  1
  B  B21  1  0.26092018  0.11735318  0.55385189  1
  B  B22  1  0.23907982  0.88264682  0.05385189  1
  B  B23  1  0.73907982  0.61735318  0.94614811  1
  B  B24  1  0.47179771  0.61215526  0.35704100  1
  B  B25  1  0.97179771  0.88784474  0.64295900  1
  B  B26  1  0.52820229  0.11215526  0.14295900  1
  B  B27  1  0.02820229  0.38784474  0.85704100  1
  B  B28  1  0.52820229  0.38784474  0.64295900  1
  B  B29  1  0.02820229  0.11215526  0.35704100  1
  B  B30  1  0.47179771  0.88784474  0.85704100  1
  B  B31  1  0.97179771  0.61215526  0.14295900  1
  H  H32  1  0.84812532  0.31620486  0.65535943  1
  H  H33  1  0.34812532  0.18379514  0.34464057  1
  H  H34  1  0.15187468  0.81620486  0.84464057  1
  H  H35  1  0.65187468  0.68379514  0.15535943  1
  H  H36  1  0.15187468  0.68379514  0.34464057  1
  H  H37  1  0.65187468  0.81620486  0.65535943  1
  H  H38  1  0.84812532  0.18379514  0.15535943  1
  H  H39  1  0.34812532  0.31620486  0.84464057  1
  H  H40  1  0.05300202  0.34491772  0.64333592  1
  H  H41  1  0.55300202  0.15508228  0.35666408  1
  H  H42  1  0.94699798  0.84491772  0.85666408  1
  H  H43  1  0.44699798  0.65508228  0.14333592  1
  H  H44  1  0.94699798  0.65508228  0.35666408  1
  H  H45  1  0.44699798  0.84491772  0.64333592  1
  H  H46  1  0.05300202  0.15508228  0.14333592  1
  H  H47  1  0.55300202  0.34491772  0.85666408  1
  H  H48  1  0.98419860  0.31087413  0.71833418  1
  H  H49  1  0.48419860  0.18912587  0.28166582  1
  H  H50  1  0.01580140  0.81087413  0.78166582  1
  H  H51  1  0.51580140  0.68912587  0.21833418  1
  H  H52  1  0.01580140  0.68912587  0.28166582  1
  H  H53  1  0.51580140  0.81087413  0.71833418  1
  H  H54  1  0.98419860  0.18912587  0.21833418  1
  H  H55  1  0.48419860  0.31087413  0.78166582  1
  H  H56  1  0.16399392  0.79466326  0.47254725  1
  H  H57  1  0.66399392  0.70533674  0.52745275  1
  H  H58  1  0.83600608  0.29466326  0.02745275  1
  H  H59  1  0.33600608  0.20533674  0.97254725  1
  H  H60  1  0.83600608  0.20533674  0.52745275  1
  H  H61  1  0.33600608  0.29466326  0.47254725  1
  H  H62  1  0.16399392  0.70533674  0.97254725  1
  H  H63  1  0.66399392  0.79466326  0.02745275  1
  H  H64  1  0.20799265  0.92484359  0.47554919  1
  H  H65  1  0.70799265  0.57515641  0.52445081  1
  H  H66  1  0.79200735  0.42484359  0.02445081  1
  H  H67  1  0.29200735  0.07515641  0.97554919  1
  H  H68  1  0.79200735  0.07515641  0.52445081  1
  H  H69  1  0.29200735  0.42484359  0.47554919  1
  H  H70  1  0.20799265  0.57515641  0.97554919  1
  H  H71  1  0.70799265  0.92484359  0.02445081  1
  H  H72  1  0.31351791  0.84520212  0.42361503  1
  H  H73  1  0.81351791  0.65479788  0.57638497  1
  H  H74  1  0.68648209  0.34520212  0.07638497  1
  H  H75  1  0.18648209  0.15479788  0.92361503  1
  H  H76  1  0.68648209  0.15479788  0.57638497  1
  H  H77  1  0.18648209  0.34520212  0.42361503  1
  H  H78  1  0.31351791  0.65479788  0.92361503  1
  H  H79  1  0.81351791  0.84520212  0.07638497  1
  H  H80  1  0.04877930  0.60223027  0.73886213  1
  H  H81  1  0.54877930  0.89776973  0.26113787  1
  H  H82  1  0.95122070  0.10223027  0.76113787  1
  H  H83  1  0.45122070  0.39776973  0.23886213  1
  H  H84  1  0.95122070  0.39776973  0.26113787  1
  H  H85  1  0.45122070  0.10223027  0.73886213  1
  H  H86  1  0.04877930  0.89776973  0.23886213  1
  H  H87  1  0.54877930  0.60223027  0.76113787  1
  H  H88  1  0.26145028  0.51621161  0.72186884  1
  H  H89  1  0.76145028  0.98378839  0.27813116  1
  H  H90  1  0.73854972  0.01621161  0.77813116  1
  H  H91  1  0.23854972  0.48378839  0.22186884  1
  H  H92  1  0.73854972  0.48378839  0.27813116  1
  H  H93  1  0.23854972  0.01621161  0.72186884  1
  H  H94  1  0.26145028  0.98378839  0.22186884  1
  H  H95  1  0.76145028  0.51621161  0.77813116  1
  H  H96  1  0.24801976  0.60258223  0.80660760  1
  H  H97  1  0.74801976  0.89741777  0.19339240  1
  H  H98  1  0.75198024  0.10258223  0.69339240  1
  H  H99  1  0.25198024  0.39741777  0.30660760  1
  H  H100  1  0.75198024  0.39741777  0.19339240  1
  H  H101  1  0.25198024  0.10258223  0.80660760  1
  H  H102  1  0.24801976  0.89741777  0.30660760  1
  H  H103  1  0.74801976  0.60258223  0.69339240  1
  H  H104  1  0.26422339  0.68281188  0.71910811  1
  H  H105  1  0.76422339  0.81718812  0.28089189  1
  H  H106  1  0.73577661  0.18281188  0.78089189  1
  H  H107  1  0.23577661  0.31718812  0.21910811  1
  H  H108  1  0.73577661  0.31718812  0.28089189  1
  H  H109  1  0.23577661  0.18281188  0.71910811  1
  H  H110  1  0.26422339  0.81718812  0.21910811  1
  H  H111  1  0.76422339  0.68281188  0.78089189  1
  H  H112  1  0.36089801  0.56130906  0.53322762  1
  H  H113  1  0.86089801  0.93869094  0.46677238  1
  H  H114  1  0.63910199  0.06130906  0.96677238  1
  H  H115  1  0.13910199  0.43869094  0.03322762  1
  H  H116  1  0.63910199  0.43869094  0.46677238  1
  H  H117  1  0.13910199  0.06130906  0.53322762  1
  H  H118  1  0.36089801  0.93869094  0.03322762  1
  H  H119  1  0.86089801  0.56130906  0.96677238  1
  H  H120  1  0.18011095  0.57202056  0.60458803  1
  H  H121  1  0.68011095  0.92797944  0.39541197  1
  H  H122  1  0.81988905  0.07202056  0.89541197  1
  H  H123  1  0.31988905  0.42797944  0.10458803  1
  H  H124  1  0.81988905  0.42797944  0.39541197  1
  H  H125  1  0.31988905  0.07202056  0.60458803  1
  H  H126  1  0.18011095  0.92797944  0.10458803  1
  H  H127  1  0.68011095  0.57202056  0.89541197  1
  H  H128  1  0.12901544  0.62838802  0.51093443  1
  H  H129  1  0.62901544  0.87161198  0.48906557  1
  H  H130  1  0.87098456  0.12838802  0.98906557  1
  H  H131  1  0.37098456  0.37161198  0.01093443  1
  H  H132  1  0.87098456  0.37161198  0.48906557  1
  H  H133  1  0.37098456  0.12838802  0.51093443  1
  H  H134  1  0.12901544  0.87161198  0.01093443  1
  H  H135  1  0.62901544  0.62838802  0.98906557  1
  H  H136  1  0.29997224  0.70584029  0.57179106  1
  H  H137  1  0.79997224  0.79415971  0.42820894  1
  H  H138  1  0.70002776  0.20584029  0.92820894  1
  H  H139  1  0.20002776  0.29415971  0.07179106  1
  H  H140  1  0.70002776  0.29415971  0.42820894  1
  H  H141  1  0.20002776  0.20584029  0.57179106  1
  H  H142  1  0.29997224  0.79415971  0.07179106  1
  H  H143  1  0.79997224  0.70584029  0.92820894  1
  H  H144  1  0.61469222  0.59481464  0.38228917  1
  H  H145  1  0.11469222  0.90518536  0.61771083  1
  H  H146  1  0.38530778  0.09481464  0.11771083  1
  H  H147  1  0.88530778  0.40518536  0.88228917  1
  H  H148  1  0.38530778  0.40518536  0.61771083  1
  H  H149  1  0.88530778  0.09481464  0.38228917  1
  H  H150  1  0.61469222  0.90518536  0.88228917  1
  H  H151  1  0.11469222  0.59481464  0.11771083  1
  H  H152  1  0.43751629  0.70823106  0.35693362  1
  H  H153  1  0.93751629  0.79176894  0.64306638  1
  H  H154  1  0.56248371  0.20823106  0.14306638  1
  H  H155  1  0.06248371  0.29176894  0.85693362  1
  H  H156  1  0.56248371  0.29176894  0.64306638  1
  H  H157  1  0.06248371  0.20823106  0.35693362  1
  H  H158  1  0.43751629  0.79176894  0.85693362  1
  H  H159  1  0.93751629  0.70823106  0.14306638  1
  H  H160  1  0.36374632  0.55893900  0.38920972  1
  H  H161  1  0.86374632  0.94106100  0.61079028  1
  H  H162  1  0.63625368  0.05893900  0.11079028  1
  H  H163  1  0.13625368  0.44106100  0.88920972  1
  H  H164  1  0.63625368  0.44106100  0.61079028  1
  H  H165  1  0.13625368  0.05893900  0.38920972  1
  H  H166  1  0.36374632  0.94106100  0.88920972  1
  H  H167  1  0.86374632  0.55893900  0.11079028  1
  H  H168  1  0.47297555  0.57518473  0.29904653  1
  H  H169  1  0.97297555  0.92481527  0.70095347  1
  H  H170  1  0.52702445  0.07518473  0.20095347  1
  H  H171  1  0.02702445  0.42481527  0.79904653  1
  H  H172  1  0.52702445  0.42481527  0.70095347  1
  H  H173  1  0.02702445  0.07518473  0.29904653  1
  H  H174  1  0.47297555  0.92481527  0.79904653  1
  H  H175  1  0.97297555  0.57518473  0.20095347  1
  N  N176  1  0.97109220  0.29258105  0.66804658  1
  N  N177  1  0.47109220  0.20741895  0.33195342  1
  N  N178  1  0.02890780  0.79258105  0.83195342  1
  N  N179  1  0.52890780  0.70741895  0.16804658  1
  N  N180  1  0.02890780  0.70741895  0.33195342  1
  N  N181  1  0.52890780  0.79258105  0.66804658  1
  N  N182  1  0.97109220  0.20741895  0.16804658  1
  N  N183  1  0.47109220  0.29258105  0.83195342  1
  N  N184  1  0.19266907  0.86070366  0.44282697  1
  N  N185  1  0.69266907  0.63929634  0.55717303  1
  N  N186  1  0.80733093  0.36070366  0.05717303  1
  N  N187  1  0.30733093  0.13929634  0.94282697  1
  N  N188  1  0.80733093  0.13929634  0.55717303  1
  N  N189  1  0.30733093  0.36070366  0.44282697  1
  N  N190  1  0.19266907  0.63929634  0.94282697  1
  N  N191  1  0.69266907  0.86070366  0.05717303  1
