# generated using pymatgen
data_Pr23Mg4Rh7
_symmetry_space_group_name_H-M   'P 1'
_cell_length_a   10.11601974
_cell_length_b   10.11601974
_cell_length_c   22.84102300
_cell_angle_alpha   90.00000000
_cell_angle_beta   90.00000000
_cell_angle_gamma   119.99999827
_symmetry_Int_Tables_number   1
_chemical_formula_structural   Pr23Mg4Rh7
_chemical_formula_sum   'Pr46 Mg8 Rh14'
_cell_volume   2024.25642446
_cell_formula_units_Z   2
loop_
 _symmetry_equiv_pos_site_id
 _symmetry_equiv_pos_as_xyz
  1  'x, y, z'
loop_
 _atom_site_type_symbol
 _atom_site_label
 _atom_site_symmetry_multiplicity
 _atom_site_fract_x
 _atom_site_fract_y
 _atom_site_fract_z
 _atom_site_occupancy
  Pr  Pr0  1  0.20781400  0.41562900  0.71887700  1
  Pr  Pr1  1  0.20781400  0.79218600  0.71887700  1
  Pr  Pr2  1  0.79218600  0.58437100  0.21887700  1
  Pr  Pr3  1  0.58437100  0.79218600  0.71887700  1
  Pr  Pr4  1  0.79218600  0.20781400  0.21887700  1
  Pr  Pr5  1  0.41562900  0.20781400  0.21887700  1
  Pr  Pr6  1  0.79218500  0.58437000  0.94830500  1
  Pr  Pr7  1  0.79218500  0.20781500  0.94830500  1
  Pr  Pr8  1  0.20781500  0.41563000  0.44830500  1
  Pr  Pr9  1  0.41563000  0.20781500  0.94830500  1
  Pr  Pr10  1  0.20781500  0.79218500  0.44830500  1
  Pr  Pr11  1  0.58437000  0.79218500  0.44830500  1
  Pr  Pr12  1  0.21023100  0.42046200  0.99100800  1
  Pr  Pr13  1  0.21023100  0.78976900  0.99100800  1
  Pr  Pr14  1  0.78976900  0.57953800  0.49100800  1
  Pr  Pr15  1  0.57953800  0.78976900  0.99100800  1
  Pr  Pr16  1  0.78976900  0.21023100  0.49100800  1
  Pr  Pr17  1  0.42046200  0.21023100  0.49100800  1
  Pr  Pr18  1  0.87141800  0.74283700  0.63481600  1
  Pr  Pr19  1  0.87141800  0.12858200  0.63481600  1
  Pr  Pr20  1  0.12858200  0.25716300  0.13481600  1
  Pr  Pr21  1  0.25716300  0.12858200  0.63481600  1
  Pr  Pr22  1  0.12858200  0.87141800  0.13481600  1
  Pr  Pr23  1  0.74283700  0.87141800  0.13481600  1
  Pr  Pr24  1  0.45835100  0.91670200  0.85624700  1
  Pr  Pr25  1  0.45835100  0.54164900  0.85624700  1
  Pr  Pr26  1  0.54164900  0.08329800  0.35624700  1
  Pr  Pr27  1  0.08329800  0.54164900  0.85624700  1
  Pr  Pr28  1  0.54164900  0.45835100  0.35624700  1
  Pr  Pr29  1  0.91670200  0.45835100  0.35624700  1
  Pr  Pr30  1  0.00000000  0.00000000  0.00030300  1
  Pr  Pr31  1  0.00000000  0.00000000  0.50030300  1
  Pr  Pr32  1  0.45985800  0.91971500  0.58512300  1
  Pr  Pr33  1  0.45985800  0.54014200  0.58512300  1
  Pr  Pr34  1  0.54014200  0.08028500  0.08512300  1
  Pr  Pr35  1  0.08028500  0.54014200  0.58512300  1
  Pr  Pr36  1  0.54014200  0.45985800  0.08512300  1
  Pr  Pr37  1  0.91971500  0.45985800  0.08512300  1
  Pr  Pr38  1  0.79441400  0.58882900  0.78157700  1
  Pr  Pr39  1  0.79441400  0.20558600  0.78157700  1
  Pr  Pr40  1  0.20558600  0.41117100  0.28157700  1
  Pr  Pr41  1  0.41117100  0.20558600  0.78157700  1
  Pr  Pr42  1  0.20558600  0.79441400  0.28157700  1
  Pr  Pr43  1  0.58882900  0.79441400  0.28157700  1
  Pr  Pr44  1  0.66666700  0.33333300  0.64532600  1
  Pr  Pr45  1  0.33333300  0.66666700  0.14532600  1
  Mg  Mg46  1  0.00000000  0.00000000  0.75032200  1
  Mg  Mg47  1  0.00000000  0.00000000  0.25032200  1
  Mg  Mg48  1  0.10562600  0.21125300  0.86270700  1
  Mg  Mg49  1  0.10562600  0.89437400  0.86270700  1
  Mg  Mg50  1  0.89437400  0.78874700  0.36270700  1
  Mg  Mg51  1  0.78874700  0.89437400  0.86270700  1
  Mg  Mg52  1  0.89437400  0.10562600  0.36270700  1
  Mg  Mg53  1  0.21125300  0.10562600  0.36270700  1
  Rh  Rh54  1  0.52091400  0.04182700  0.70972400  1
  Rh  Rh55  1  0.52091400  0.47908600  0.70972400  1
  Rh  Rh56  1  0.47908600  0.95817300  0.20972400  1
  Rh  Rh57  1  0.95817300  0.47908600  0.70972400  1
  Rh  Rh58  1  0.47908600  0.52091400  0.20972400  1
  Rh  Rh59  1  0.04182700  0.52091400  0.20972400  1
  Rh  Rh60  1  0.66666700  0.33333300  0.86419400  1
  Rh  Rh61  1  0.33333300  0.66666700  0.36419400  1
  Rh  Rh62  1  0.14357600  0.28715300  0.56380800  1
  Rh  Rh63  1  0.14357600  0.85642400  0.56380800  1
  Rh  Rh64  1  0.85642400  0.71284700  0.06380800  1
  Rh  Rh65  1  0.71284700  0.85642400  0.56380800  1
  Rh  Rh66  1  0.85642400  0.14357600  0.06380800  1
  Rh  Rh67  1  0.28715300  0.14357600  0.06380800  1
