# generated using pymatgen
data_Eu2Si4Pd3Au
_symmetry_space_group_name_H-M   'P 1'
_cell_length_a   4.28207900
_cell_length_b   4.28207900
_cell_length_c   9.94618100
_cell_angle_alpha   90.00000000
_cell_angle_beta   90.00000000
_cell_angle_gamma   90.00000000
_symmetry_Int_Tables_number   1
_chemical_formula_structural   Eu2Si4Pd3Au
_chemical_formula_sum   'Eu2 Si4 Pd3 Au1'
_cell_volume   182.37516964
_cell_formula_units_Z   1
loop_
 _symmetry_equiv_pos_site_id
 _symmetry_equiv_pos_as_xyz
  1  'x, y, z'
loop_
 _atom_site_type_symbol
 _atom_site_label
 _atom_site_symmetry_multiplicity
 _atom_site_fract_x
 _atom_site_fract_y
 _atom_site_fract_z
 _atom_site_occupancy
  Eu  Eu0  1  0.50000000  0.00000000  0.74812300  1
  Eu  Eu1  1  0.00000000  0.50000000  0.25187700  1
  Si  Si2  1  0.00000000  0.50000000  0.86402600  1
  Si  Si3  1  0.50000000  0.00000000  0.37324600  1
  Si  Si4  1  0.50000000  0.00000000  0.13597400  1
  Si  Si5  1  0.00000000  0.50000000  0.62675400  1
  Pd  Pd6  1  0.00000000  0.00000000  0.50000000  1
  Pd  Pd7  1  0.00000000  0.00000000  0.00000000  1
  Pd  Pd8  1  0.50000000  0.50000000  0.50000000  1
  Au  Au9  1  0.50000000  0.50000000  0.00000000  1
