# generated using pymatgen
data_TbSi2
_symmetry_space_group_name_H-M   'P 1'
_cell_length_a   7.77510488
_cell_length_b   7.77510488
_cell_length_c   7.77510488
_cell_angle_alpha   150.09247316
_cell_angle_beta   150.09247316
_cell_angle_gamma   42.80567937
_symmetry_Int_Tables_number   1
_chemical_formula_structural   TbSi2
_chemical_formula_sum   'Tb2 Si4'
_cell_volume   116.55162899
_cell_formula_units_Z   2
loop_
 _symmetry_equiv_pos_site_id
 _symmetry_equiv_pos_as_xyz
  1  'x, y, z'
loop_
 _atom_site_type_symbol
 _atom_site_label
 _atom_site_symmetry_multiplicity
 _atom_site_fract_x
 _atom_site_fract_y
 _atom_site_fract_z
 _atom_site_occupancy
  Tb  Tb0  1  0.25000000  0.75000000  0.50000000  1
  Tb  Tb1  1  0.50000000  0.50000000  0.00000000  1
  Si  Si2  1  0.83274200  0.33274200  0.50000000  1
  Si  Si3  1  0.91725800  0.91725800  0.00000000  1
  Si  Si4  1  0.66725800  0.16725800  0.50000000  1
  Si  Si5  1  0.08274200  0.08274200  0.00000000  1
