# generated using pymatgen
data_Pr2Al3Ge4
_symmetry_space_group_name_H-M   'P 1'
_cell_length_a   8.16521799
_cell_length_b   8.16521799
_cell_length_c   8.02590700
_cell_angle_alpha   90.00000000
_cell_angle_beta   90.00000000
_cell_angle_gamma   136.01733801
_symmetry_Int_Tables_number   1
_chemical_formula_structural   Pr2Al3Ge4
_chemical_formula_sum   'Pr4 Al6 Ge8'
_cell_volume   371.59069768
_cell_formula_units_Z   2
loop_
 _symmetry_equiv_pos_site_id
 _symmetry_equiv_pos_as_xyz
  1  'x, y, z'
loop_
 _atom_site_type_symbol
 _atom_site_label
 _atom_site_symmetry_multiplicity
 _atom_site_fract_x
 _atom_site_fract_y
 _atom_site_fract_z
 _atom_site_occupancy
  Pr  Pr0  1  0.11343800  0.88656200  0.41773700  1
  Pr  Pr1  1  0.88656200  0.11343800  0.58226300  1
  Pr  Pr2  1  0.38656200  0.61343800  0.91773700  1
  Pr  Pr3  1  0.61343800  0.38656200  0.08226300  1
  Al  Al4  1  0.00000000  0.00000000  0.00000000  1
  Al  Al5  1  0.50000000  0.50000000  0.50000000  1
  Al  Al6  1  0.03229200  0.46770800  0.25000000  1
  Al  Al7  1  0.46770800  0.03229200  0.75000000  1
  Al  Al8  1  0.96770800  0.53229200  0.75000000  1
  Al  Al9  1  0.53229200  0.96770800  0.25000000  1
  Ge  Ge10  1  0.20068200  0.29931800  0.25000000  1
  Ge  Ge11  1  0.29931800  0.20068200  0.75000000  1
  Ge  Ge12  1  0.79931800  0.70068200  0.75000000  1
  Ge  Ge13  1  0.70068200  0.79931800  0.25000000  1
  Ge  Ge14  1  0.18532000  0.81468000  0.05016400  1
  Ge  Ge15  1  0.81468000  0.18532000  0.94983600  1
  Ge  Ge16  1  0.31468000  0.68532000  0.55016400  1
  Ge  Ge17  1  0.68532000  0.31468000  0.44983600  1
