# generated using pymatgen
data_Lu(MnSn)6
_symmetry_space_group_name_H-M   'P 1'
_cell_length_a   5.44116602
_cell_length_b   5.44245862
_cell_length_c   8.99853100
_cell_angle_alpha   90.00000000
_cell_angle_beta   90.00000000
_cell_angle_gamma   119.99213852
_symmetry_Int_Tables_number   1
_chemical_formula_structural   Lu(MnSn)6
_chemical_formula_sum   'Lu1 Mn6 Sn6'
_cell_volume   230.79359911
_cell_formula_units_Z   1
loop_
 _symmetry_equiv_pos_site_id
 _symmetry_equiv_pos_as_xyz
  1  'x, y, z'
loop_
 _atom_site_type_symbol
 _atom_site_label
 _atom_site_symmetry_multiplicity
 _atom_site_fract_x
 _atom_site_fract_y
 _atom_site_fract_z
 _atom_site_occupancy
  Lu  Lu0  1  0.99998100  0.00000000  0.00000000  1
  Mn  Mn1  1  0.49999500  0.00000000  0.24785800  1
  Mn  Mn2  1  0.49998900  0.50000300  0.24785600  1
  Mn  Mn3  1  0.99998600  0.49999700  0.24785600  1
  Mn  Mn4  1  0.49999500  0.00000000  0.75214200  1
  Mn  Mn5  1  0.49998900  0.50000300  0.75214400  1
  Mn  Mn6  1  0.99998600  0.49999700  0.75214400  1
  Sn  Sn7  1  0.33322800  0.66648900  0.00000000  1
  Sn  Sn8  1  0.66673800  0.33351100  0.00000000  1
  Sn  Sn9  1  0.33320800  0.66648300  0.50000000  1
  Sn  Sn10  1  0.66672500  0.33351700  0.50000000  1
  Sn  Sn11  1  0.99999100  0.00000000  0.33151900  1
  Sn  Sn12  1  0.99999100  0.00000000  0.66848100  1
