# generated using pymatgen
data_VCl5
_symmetry_space_group_name_H-M   'P 1'
_cell_length_a   6.41342440
_cell_length_b   6.93363960
_cell_length_c   9.25598739
_cell_angle_alpha   110.19962764
_cell_angle_beta   91.14823608
_cell_angle_gamma   115.86570218
_symmetry_Int_Tables_number   1
_chemical_formula_structural   VCl5
_chemical_formula_sum   'V2 Cl10'
_cell_volume   340.41200239
_cell_formula_units_Z   2
loop_
 _symmetry_equiv_pos_site_id
 _symmetry_equiv_pos_as_xyz
  1  'x, y, z'
loop_
 _atom_site_type_symbol
 _atom_site_label
 _atom_site_symmetry_multiplicity
 _atom_site_fract_x
 _atom_site_fract_y
 _atom_site_fract_z
 _atom_site_occupancy
  V  V0  1  0.39506603  0.28098160  0.27997841  1
  V  V1  1  0.60493397  0.71901840  0.72002159  1
  Cl  Cl2  1  0.72250478  0.66974871  0.45931148  1
  Cl  Cl3  1  0.27749522  0.33025129  0.54068852  1
  Cl  Cl4  1  0.60653579  0.13433567  0.34895112  1
  Cl  Cl5  1  0.39346421  0.86566433  0.65104888  1
  Cl  Cl6  1  0.56702551  0.31815492  0.08424504  1
  Cl  Cl7  1  0.43297449  0.68184508  0.91575496  1
  Cl  Cl8  1  0.21059693  0.47834559  0.25513893  1
  Cl  Cl9  1  0.78940307  0.52165441  0.74486107  1
  Cl  Cl10  1  0.07680923  0.94699702  0.17874398  1
  Cl  Cl11  1  0.92319077  0.05300298  0.82125602  1
