# generated using pymatgen
data_Er2Nb2S7O30
_symmetry_space_group_name_H-M   'P 1'
_cell_length_a   12.79656000
_cell_length_b   12.79656000
_cell_length_c   7.10762000
_cell_angle_alpha   90.00000000
_cell_angle_beta   90.00000000
_cell_angle_gamma   90.00000000
_symmetry_Int_Tables_number   1
_chemical_formula_structural   Er2Nb2S7O30
_chemical_formula_sum   'Er4 Nb4 S14 O60'
_cell_volume   1163.88661946
_cell_formula_units_Z   2
loop_
 _symmetry_equiv_pos_site_id
 _symmetry_equiv_pos_as_xyz
  1  'x, y, z'
loop_
 _atom_site_type_symbol
 _atom_site_label
 _atom_site_symmetry_multiplicity
 _atom_site_fract_x
 _atom_site_fract_y
 _atom_site_fract_z
 _atom_site_occupancy
  Er  Er0  1  0.19856200  0.30143800  0.40769200  1
  Er  Er1  1  0.30143800  0.80143800  0.59230800  1
  Er  Er2  1  0.80143800  0.69856200  0.40769200  1
  Er  Er3  1  0.69856200  0.19856200  0.59230800  1
  Nb  Nb4  1  0.36056000  0.13944000  0.02039000  1
  Nb  Nb5  1  0.13944000  0.63944000  0.97961000  1
  Nb  Nb6  1  0.63944000  0.86056000  0.02039000  1
  Nb  Nb7  1  0.86056000  0.36056000  0.97961000  1
  S  S8  1  0.50000000  0.00000000  0.65391300  1
  S  S9  1  0.00000000  0.50000000  0.34608700  1
  S  S10  1  0.62385200  0.12385200  0.10832500  1
  S  S11  1  0.87614800  0.62385200  0.89167500  1
  S  S12  1  0.37614800  0.87614800  0.10832500  1
  S  S13  1  0.12385200  0.37614800  0.89167500  1
  S  S14  1  0.43594200  0.32290700  0.69706700  1
  S  S15  1  0.06405800  0.82290700  0.30293300  1
  S  S16  1  0.56405800  0.67709300  0.69706700  1
  S  S17  1  0.93594200  0.17709300  0.30293300  1
  S  S18  1  0.32290700  0.56405800  0.30293300  1
  S  S19  1  0.17709300  0.06405800  0.69706700  1
  S  S20  1  0.67709300  0.43594200  0.30293300  1
  S  S21  1  0.82290700  0.93594200  0.69706700  1
  O  O22  1  0.29609400  0.20390600  0.20984000  1
  O  O23  1  0.20390600  0.70390600  0.79016000  1
  O  O24  1  0.70390600  0.79609400  0.20984000  1
  O  O25  1  0.79609400  0.29609400  0.79016000  1
  O  O26  1  0.43204200  0.93204200  0.53948700  1
  O  O27  1  0.06795800  0.43204200  0.46051300  1
  O  O28  1  0.56795800  0.06795800  0.53948700  1
  O  O29  1  0.93204200  0.56795800  0.46051300  1
  O  O30  1  0.43338400  0.06661600  0.77646900  1
  O  O31  1  0.06661600  0.56661600  0.22353100  1
  O  O32  1  0.56661600  0.93338400  0.77646900  1
  O  O33  1  0.93338400  0.43338400  0.22353100  1
  O  O34  1  0.65636600  0.15636600  0.92141800  1
  O  O35  1  0.84363400  0.65636600  0.07858200  1
  O  O36  1  0.34363400  0.84363400  0.92141800  1
  O  O37  1  0.15636600  0.34363400  0.07858200  1
  O  O38  1  0.67711700  0.17711700  0.26256000  1
  O  O39  1  0.82288300  0.67711700  0.73744000  1
  O  O40  1  0.32288300  0.82288300  0.26256000  1
  O  O41  1  0.17711700  0.32288300  0.73744000  1
  O  O42  1  0.50837100  0.14270000  0.13334900  1
  O  O43  1  0.99162900  0.64270000  0.86665100  1
  O  O44  1  0.49162900  0.85730000  0.13334900  1
  O  O45  1  0.00837100  0.35730000  0.86665100  1
  O  O46  1  0.14270000  0.49162900  0.86665100  1
  O  O47  1  0.35730000  0.99162900  0.13334900  1
  O  O48  1  0.85730000  0.50837100  0.86665100  1
  O  O49  1  0.64270000  0.00837100  0.13334900  1
  O  O50  1  0.36806400  0.28784500  0.54200500  1
  O  O51  1  0.13193600  0.78784500  0.45799500  1
  O  O52  1  0.63193600  0.71215500  0.54200500  1
  O  O53  1  0.86806400  0.21215500  0.45799500  1
  O  O54  1  0.28784500  0.63193600  0.45799500  1
  O  O55  1  0.21215500  0.13193600  0.54200500  1
  O  O56  1  0.71215500  0.36806400  0.45799500  1
  O  O57  1  0.78784500  0.86806400  0.54200500  1
  O  O58  1  0.54448700  0.28898200  0.66978800  1
  O  O59  1  0.95551300  0.78898200  0.33021200  1
  O  O60  1  0.45551300  0.71101800  0.66978800  1
  O  O61  1  0.04448700  0.21101800  0.33021200  1
  O  O62  1  0.28898200  0.45551300  0.33021200  1
  O  O63  1  0.21101800  0.95551300  0.66978800  1
  O  O64  1  0.71101800  0.54448700  0.33021200  1
  O  O65  1  0.78898200  0.04448700  0.66978800  1
  O  O66  1  0.42554700  0.43579200  0.72435200  1
  O  O67  1  0.07445300  0.93579200  0.27564800  1
  O  O68  1  0.57445300  0.56420800  0.72435200  1
  O  O69  1  0.92554700  0.06420800  0.27564800  1
  O  O70  1  0.43579200  0.57445300  0.27564800  1
  O  O71  1  0.06420800  0.07445300  0.72435200  1
  O  O72  1  0.56420800  0.42554700  0.27564800  1
  O  O73  1  0.93579200  0.92554700  0.72435200  1
  O  O74  1  0.39495500  0.27065200  0.87834700  1
  O  O75  1  0.10504500  0.77065200  0.12165300  1
  O  O76  1  0.60504500  0.72934800  0.87834700  1
  O  O77  1  0.89495500  0.22934800  0.12165300  1
  O  O78  1  0.27065200  0.60504500  0.12165300  1
  O  O79  1  0.22934800  0.10504500  0.87834700  1
  O  O80  1  0.72934800  0.39495500  0.12165300  1
  O  O81  1  0.77065200  0.89495500  0.87834700  1
