# generated using pymatgen
data_KAl11O17
_symmetry_space_group_name_H-M   'P 1'
_cell_length_a   5.65291802
_cell_length_b   5.65292562
_cell_length_c   22.96102416
_cell_angle_alpha   89.99958615
_cell_angle_beta   90.00038149
_cell_angle_gamma   120.01193330
_symmetry_Int_Tables_number   1
_chemical_formula_structural   KAl11O17
_chemical_formula_sum   'K2 Al22 O34'
_cell_volume   635.35376856
_cell_formula_units_Z   2
loop_
 _symmetry_equiv_pos_site_id
 _symmetry_equiv_pos_as_xyz
  1  'x, y, z'
loop_
 _atom_site_type_symbol
 _atom_site_label
 _atom_site_symmetry_multiplicity
 _atom_site_fract_x
 _atom_site_fract_y
 _atom_site_fract_z
 _atom_site_occupancy
  K  K0  1  0.33149908  0.66848854  0.75000891  1
  K  K1  1  0.66849869  0.33149636  0.24999378  1
  Al  Al2  1  0.16743454  0.83257250  0.89404388  1
  Al  Al3  1  0.16743726  0.83256594  0.60595519  1
  Al  Al4  1  0.33369945  0.66630488  0.17524868  1
  Al  Al5  1  0.33333567  0.66666828  0.02471228  1
  Al  Al6  1  0.00000144  0.00000261  0.00000092  1
  Al  Al7  1  0.33369403  0.66630491  0.32477596  1
  Al  Al8  1  0.99999938  0.00000067  0.50000062  1
  Al  Al9  1  0.33333548  0.66666380  0.47529262  1
  Al  Al10  1  0.16723847  0.33489939  0.60595895  1
  Al  Al11  1  0.16723854  0.33490066  0.89403920  1
  Al  Al12  1  0.66510603  0.83276908  0.89403867  1
  Al  Al13  1  0.66509794  0.83275576  0.60595979  1
  Al  Al14  1  0.33490027  0.16724560  0.39404118  1
  Al  Al15  1  0.33490446  0.16724250  0.10596185  1
  Al  Al16  1  0.83275975  0.66510200  0.39404174  1
  Al  Al17  1  0.66630539  0.33369581  0.67522519  1
  Al  Al18  1  0.66630313  0.33369997  0.82475411  1
  Al  Al19  1  0.66666619  0.33333723  0.52471077  1
  Al  Al20  1  0.66666720  0.33334250  0.97529051  1
  Al  Al21  1  0.83276986  0.66511035  0.10596181  1
  Al  Al22  1  0.83256995  0.16743563  0.10595669  1
  Al  Al23  1  0.83256523  0.16743710  0.39404587  1
  O  O24  1  0.15710464  0.84290060  0.04937846  1
  O  O25  1  0.15710303  0.84290148  0.45062034  1
  O  O26  1  0.00453668  0.50236190  0.64484513  1
  O  O27  1  0.00452618  0.50236405  0.85515477  1
  O  O28  1  0.33463082  0.66535437  0.24998266  1
  O  O29  1  0.15705578  0.31427370  0.45068543  1
  O  O30  1  0.99997434  0.00003522  0.14044073  1
  O  O31  1  0.99996612  0.00003721  0.35955687  1
  O  O32  1  0.33319885  0.66680171  0.55513173  1
  O  O33  1  0.00002927  0.99997093  0.85955847  1
  O  O34  1  0.00003298  0.99996377  0.64044230  1
  O  O35  1  0.33320041  0.66680536  0.94485937  1
  O  O36  1  0.15705936  0.31427427  0.04931415  1
  O  O37  1  0.49763832  0.99547416  0.85515389  1
  O  O38  1  0.49763624  0.99546015  0.64484639  1
  O  O39  1  0.31426933  0.15705319  0.54931398  1
  O  O40  1  0.31426950  0.15705647  0.95068422  1
  O  O41  1  0.49752842  0.50246787  0.64465906  1
  O  O42  1  0.49752756  0.50247569  0.85533959  1
  O  O43  1  0.50246628  0.49753682  0.35533987  1
  O  O44  1  0.50248112  0.49752775  0.14466021  1
  O  O45  1  0.68573181  0.84294755  0.04931480  1
  O  O46  1  0.68572942  0.84294827  0.45068501  1
  O  O47  1  0.50235771  0.00453069  0.35515369  1
  O  O48  1  0.66679921  0.33319902  0.44486575  1
  O  O49  1  0.50237032  0.00453693  0.14484552  1
  O  O50  1  0.84294342  0.68572872  0.95068423  1
  O  O51  1  0.84294538  0.68572951  0.54931295  1
  O  O52  1  0.66680387  0.33320066  0.05513782  1
  O  O53  1  0.66536800  0.33465782  0.75001623  1
  O  O54  1  0.99547282  0.49763836  0.14484508  1
  O  O55  1  0.99547207  0.49764210  0.35515438  1
  O  O56  1  0.84289791  0.15710397  0.95062053  1
  O  O57  1  0.84289841  0.15710169  0.54937822  1
