# generated using pymatgen
data_Mn7GeO12
_symmetry_space_group_name_H-M   'P 1'
_cell_length_a   9.69185000
_cell_length_b   9.69185034
_cell_length_c   11.79282760
_cell_angle_alpha   114.26272532
_cell_angle_beta   114.26272625
_cell_angle_gamma   89.99999897
_symmetry_Int_Tables_number   1
_chemical_formula_structural   Mn7GeO12
_chemical_formula_sum   'Mn28 Ge4 O48'
_cell_volume   901.47677856
_cell_formula_units_Z   4
loop_
 _symmetry_equiv_pos_site_id
 _symmetry_equiv_pos_as_xyz
  1  'x, y, z'
loop_
 _atom_site_type_symbol
 _atom_site_label
 _atom_site_symmetry_multiplicity
 _atom_site_fract_x
 _atom_site_fract_y
 _atom_site_fract_z
 _atom_site_occupancy
  Mn  Mn0  1  0.78807489  0.25000000  0.50000000  1
  Mn  Mn1  1  0.87500000  0.62500000  0.75000000  1
  Mn  Mn2  1  -0.00000000  0.00000000  0.00000000  1
  Mn  Mn3  1  0.21192511  0.75000000  0.50000000  1
  Mn  Mn4  1  0.62500000  0.87500000  0.25000000  1
  Mn  Mn5  1  0.35609766  0.60609766  0.25000000  1
  Mn  Mn6  1  0.75000000  0.78807489  0.00000000  1
  Mn  Mn7  1  0.25000000  0.71192511  1.00000000  1
  Mn  Mn8  1  0.12500000  0.37500000  0.25000000  1
  Mn  Mn9  1  0.10609766  0.85609766  0.75000000  1
  Mn  Mn10  1  0.14390234  0.35609766  0.75000000  1
  Mn  Mn11  1  0.50000000  0.00000000  0.50000000  1
  Mn  Mn12  1  -0.00000000  0.50000000  0.50000000  1
  Mn  Mn13  1  0.71192511  0.75000000  0.50000000  1
  Mn  Mn14  1  0.39390234  0.10609766  0.25000000  1
  Mn  Mn15  1  0.25000000  0.21192511  1.00000000  1
  Mn  Mn16  1  0.60609766  0.89390234  0.75000000  1
  Mn  Mn17  1  -0.00000000  0.00000000  0.50000000  1
  Mn  Mn18  1  0.64390234  0.39390234  0.75000000  1
  Mn  Mn19  1  -0.00000000  0.50000000  0.00000000  1
  Mn  Mn20  1  0.50000000  0.50000000  0.50000000  1
  Mn  Mn21  1  0.85609766  0.64390234  0.25000000  1
  Mn  Mn22  1  0.28807489  0.25000000  0.50000000  1
  Mn  Mn23  1  0.89390234  0.14390234  0.25000000  1
  Mn  Mn24  1  0.37500000  0.12500000  0.75000000  1
  Mn  Mn25  1  0.75000000  0.28807489  0.00000000  1
  Mn  Mn26  1  0.50000000  0.50000000  0.00000000  1
  Mn  Mn27  1  0.50000000  0.00000000  0.00000000  1
  Ge  Ge28  1  0.12500000  0.87500000  0.25000000  1
  Ge  Ge29  1  0.87500000  0.12500000  0.75000000  1
  Ge  Ge30  1  0.37500000  0.62500000  0.75000000  1
  Ge  Ge31  1  0.62500000  0.37500000  0.25000000  1
  O  O32  1  0.37096527  0.29930474  0.38469102  1
  O  O33  1  0.94370409  0.15605246  0.64446646  1
  O  O34  1  0.08538628  0.51372575  0.88469102  1
  O  O35  1  0.29923763  0.01158600  0.35553354  1
  O  O36  1  0.01158600  0.05629591  0.85553354  1
  O  O37  1  0.91461372  0.48627425  0.11530898  1
  O  O38  1  0.15605246  0.70076237  0.14446646  1
  O  O39  1  0.65605246  0.44370409  0.14446646  1
  O  O40  1  0.87096527  0.08538628  0.38469102  1
  O  O41  1  0.70069526  0.98627425  0.11530898  1
  O  O42  1  0.34394754  0.55629591  0.85553354  1
  O  O43  1  0.70076237  0.98841400  0.64446646  1
  O  O44  1  0.98841400  0.94370409  0.14446646  1
  O  O45  1  0.59218358  0.09416966  0.88774612  1
  O  O46  1  0.20443746  0.40583034  0.11225388  1
  O  O47  1  0.90583034  0.70443746  0.61225388  1
  O  O48  1  0.12903473  0.91461372  0.61530898  1
  O  O49  1  0.98627425  0.41461372  0.61530898  1
  O  O50  1  0.79930474  0.87096527  0.88469102  1
  O  O51  1  0.09416966  0.29556254  0.38774612  1
  O  O52  1  0.40583034  0.90781642  0.61225388  1
  O  O53  1  0.79923763  0.34394754  0.35553354  1
  O  O54  1  0.48627425  0.20069526  0.61530898  1
  O  O55  1  0.79357647  0.79556254  0.38774612  1
  O  O56  1  0.20642353  0.20443746  0.61225388  1
  O  O57  1  0.51372575  0.79930474  0.38469102  1
  O  O58  1  0.70642353  0.40781642  0.61225388  1
  O  O59  1  0.62903473  0.70069526  0.61530898  1
  O  O60  1  0.05629591  0.84394754  0.35553354  1
  O  O61  1  0.59416966  0.09218358  0.38774612  1
  O  O62  1  0.29556254  0.29357647  0.88774612  1
  O  O63  1  0.20076237  0.65605246  0.64446646  1
  O  O64  1  0.48841400  0.20076237  0.14446646  1
  O  O65  1  0.51158600  0.79923763  0.85553354  1
  O  O66  1  0.90781642  0.20642353  0.11225388  1
  O  O67  1  0.40781642  0.90583034  0.11225388  1
  O  O68  1  0.44370409  0.48841400  0.64446646  1
  O  O69  1  0.79556254  0.59416966  0.88774612  1
  O  O70  1  0.55629591  0.51158600  0.35553354  1
  O  O71  1  0.29930474  0.01372575  0.88469102  1
  O  O72  1  0.29357647  0.59218358  0.38774612  1
  O  O73  1  0.70443746  0.70642353  0.11225388  1
  O  O74  1  0.20069526  0.12903473  0.11530898  1
  O  O75  1  0.01372575  0.58538628  0.38469102  1
  O  O76  1  0.84394754  0.29923763  0.85553354  1
  O  O77  1  0.09218358  0.79357647  0.88774612  1
  O  O78  1  0.41461372  0.62903473  0.11530898  1
  O  O79  1  0.58538628  0.37096527  0.88469102  1
