# generated using pymatgen
data_CsCuTeS3
_symmetry_space_group_name_H-M   'P 1'
_cell_length_a   9.19353100
_cell_length_b   9.19353100
_cell_length_c   9.19353100
_cell_angle_alpha   90.00000000
_cell_angle_beta   90.00000000
_cell_angle_gamma   90.00000000
_symmetry_Int_Tables_number   1
_chemical_formula_structural   CsCuTeS3
_chemical_formula_sum   'Cs4 Cu4 Te4 S12'
_cell_volume   777.04654625
_cell_formula_units_Z   4
loop_
 _symmetry_equiv_pos_site_id
 _symmetry_equiv_pos_as_xyz
  1  'x, y, z'
loop_
 _atom_site_type_symbol
 _atom_site_label
 _atom_site_symmetry_multiplicity
 _atom_site_fract_x
 _atom_site_fract_y
 _atom_site_fract_z
 _atom_site_occupancy
  Cs  Cs0  1  0.41761100  0.41761100  0.41761100  1
  Cs  Cs1  1  0.08238900  0.58238900  0.91761100  1
  Cs  Cs2  1  0.58238900  0.91761100  0.08238900  1
  Cs  Cs3  1  0.91761100  0.08238900  0.58238900  1
  Cu  Cu4  1  0.64656900  0.64656900  0.64656900  1
  Cu  Cu5  1  0.85343100  0.35343100  0.14656900  1
  Cu  Cu6  1  0.35343100  0.14656900  0.85343100  1
  Cu  Cu7  1  0.14656900  0.85343100  0.35343100  1
  Te  Te8  1  0.07094200  0.07094200  0.07094200  1
  Te  Te9  1  0.42905800  0.92905800  0.57094200  1
  Te  Te10  1  0.92905800  0.57094200  0.42905800  1
  Te  Te11  1  0.57094200  0.42905800  0.92905800  1
  S  S12  1  0.03217900  0.36287500  0.31136600  1
  S  S13  1  0.46782100  0.63712500  0.81136600  1
  S  S14  1  0.96782100  0.86287500  0.18863400  1
  S  S15  1  0.31136600  0.03217900  0.36287500  1
  S  S16  1  0.53217900  0.13712500  0.68863400  1
  S  S17  1  0.81136600  0.46782100  0.63712500  1
  S  S18  1  0.18863400  0.96782100  0.86287500  1
  S  S19  1  0.68863400  0.53217900  0.13712500  1
  S  S20  1  0.36287500  0.31136600  0.03217900  1
  S  S21  1  0.86287500  0.18863400  0.96782100  1
  S  S22  1  0.13712500  0.68863400  0.53217900  1
  S  S23  1  0.63712500  0.81136600  0.46782100  1
