# generated using pymatgen
data_Lu2(Ni5B3)3
_symmetry_space_group_name_H-M   'P 1'
_cell_length_a   9.76507661
_cell_length_b   9.76507661
_cell_length_c   11.17769875
_cell_angle_alpha   90.00000000
_cell_angle_beta   90.00000000
_cell_angle_gamma   107.87094850
_symmetry_Int_Tables_number   1
_chemical_formula_structural   Lu2(Ni5B3)3
_chemical_formula_sum   'Lu8 Ni60 B36'
_cell_volume   1014.44067170
_cell_formula_units_Z   4
loop_
 _symmetry_equiv_pos_site_id
 _symmetry_equiv_pos_as_xyz
  1  'x, y, z'
loop_
 _atom_site_type_symbol
 _atom_site_label
 _atom_site_symmetry_multiplicity
 _atom_site_fract_x
 _atom_site_fract_y
 _atom_site_fract_z
 _atom_site_occupancy
  Lu  Lu0  1  0.25970306  0.25970306  0.95762652  1
  Lu  Lu1  1  0.74029694  0.74029694  0.04237348  1
  Lu  Lu2  1  0.24029694  0.24029694  0.45762652  1
  Lu  Lu3  1  0.75970306  0.75970306  0.54237348  1
  Lu  Lu4  1  0.18971510  0.68971510  0.75000000  1
  Lu  Lu5  1  0.31028490  0.81028490  0.25000000  1
  Lu  Lu6  1  0.81028490  0.31028490  0.25000000  1
  Lu  Lu7  1  0.68971510  0.18971510  0.75000000  1
  Ni  Ni8  1  0.50000000  0.50000000  0.00000000  1
  Ni  Ni9  1  -0.00000000  0.00000000  0.50000000  1
  Ni  Ni10  1  0.50000000  0.50000000  0.50000000  1
  Ni  Ni11  1  -0.00000000  0.00000000  -0.00000000  1
  Ni  Ni12  1  0.23373452  0.23373452  0.71270468  1
  Ni  Ni13  1  0.76626548  0.76626548  0.28729532  1
  Ni  Ni14  1  0.26626548  0.26626548  0.21270468  1
  Ni  Ni15  1  0.73373452  0.73373452  0.78729532  1
  Ni  Ni16  1  0.92952624  0.42952624  0.75000000  1
  Ni  Ni17  1  0.57047376  0.07047376  0.25000000  1
  Ni  Ni18  1  0.07047376  0.57047376  0.25000000  1
  Ni  Ni19  1  0.42952624  0.92952624  0.75000000  1
  Ni  Ni20  1  0.98929794  0.18351692  0.84003672  1
  Ni  Ni21  1  0.81648308  0.01070206  0.15996328  1
  Ni  Ni22  1  0.31648308  0.51070206  0.34003672  1
  Ni  Ni23  1  0.48929794  0.68351692  0.65996328  1
  Ni  Ni24  1  0.01070206  0.81648308  0.15996328  1
  Ni  Ni25  1  0.18351692  0.98929794  0.84003672  1
  Ni  Ni26  1  0.68351692  0.48929794  0.65996328  1
  Ni  Ni27  1  0.51070206  0.31648308  0.34003672  1
  Ni  Ni28  1  0.25600548  0.46908868  0.59611304  1
  Ni  Ni29  1  0.53091132  0.74399452  0.40388696  1
  Ni  Ni30  1  0.03091132  0.24399452  0.09611304  1
  Ni  Ni31  1  0.75600548  0.96908868  0.90388696  1
  Ni  Ni32  1  0.74399452  0.53091132  0.40388696  1
  Ni  Ni33  1  0.46908868  0.25600548  0.59611304  1
  Ni  Ni34  1  0.96908868  0.75600548  0.90388696  1
  Ni  Ni35  1  0.24399452  0.03091132  0.09611304  1
  Ni  Ni36  1  0.99657110  0.22769683  0.61764785  1
  Ni  Ni37  1  0.77230317  0.00342890  0.38235215  1
  Ni  Ni38  1  0.27230317  0.50342890  0.11764785  1
  Ni  Ni39  1  0.49657110  0.72769683  0.88235215  1
  Ni  Ni40  1  0.00342890  0.77230317  0.38235215  1
  Ni  Ni41  1  0.22769683  0.99657110  0.61764785  1
  Ni  Ni42  1  0.72769683  0.49657110  0.88235215  1
  Ni  Ni43  1  0.50342890  0.27230317  0.11764785  1
  Ni  Ni44  1  0.10705717  0.44579375  0.91603059  1
  Ni  Ni45  1  0.55420625  0.89294283  0.08396941  1
  Ni  Ni46  1  0.05420625  0.39294283  0.41603059  1
  Ni  Ni47  1  0.60705717  0.94579375  0.58396941  1
  Ni  Ni48  1  0.89294283  0.55420625  0.08396941  1
  Ni  Ni49  1  0.44579375  0.10705717  0.91603059  1
  Ni  Ni50  1  0.94579375  0.60705717  0.58396941  1
  Ni  Ni51  1  0.39294283  0.05420625  0.41603059  1
  Ni  Ni52  1  0.33048234  0.48924724  0.80675518  1
  Ni  Ni53  1  0.51075276  0.66951766  0.19324482  1
  Ni  Ni54  1  0.01075276  0.16951766  0.30675518  1
  Ni  Ni55  1  0.83048234  0.98924724  0.69324482  1
  Ni  Ni56  1  0.66951766  0.51075276  0.19324482  1
  Ni  Ni57  1  0.48924724  0.33048234  0.80675518  1
  Ni  Ni58  1  0.98924724  0.83048234  0.69324482  1
  Ni  Ni59  1  0.16951766  0.01075276  0.30675518  1
  Ni  Ni60  1  0.83725195  0.36253109  0.53079526  1
  Ni  Ni61  1  0.63746891  0.16274805  0.46920474  1
  Ni  Ni62  1  0.13746891  0.66274805  0.03079526  1
  Ni  Ni63  1  0.33725195  0.86253109  0.96920474  1
  Ni  Ni64  1  0.16274805  0.63746891  0.46920474  1
  Ni  Ni65  1  0.36253109  0.83725195  0.53079526  1
  Ni  Ni66  1  0.86253109  0.33725195  0.96920474  1
  Ni  Ni67  1  0.66274805  0.13746891  0.03079526  1
  B  B68  1  0.36470987  0.63529013  0.50000000  1
  B  B69  1  0.86470987  0.13529013  -0.00000000  1
  B  B70  1  0.63529013  0.36470987  0.50000000  1
  B  B71  1  0.13529013  0.86470987  0.00000000  1
  B  B72  1  0.45114060  0.45114060  0.67181045  1
  B  B73  1  0.54885940  0.54885940  0.32818955  1
  B  B74  1  0.04885940  0.04885940  0.17181045  1
  B  B75  1  0.95114060  0.95114060  0.82818955  1
  B  B76  1  0.05653920  0.05653920  0.69942263  1
  B  B77  1  0.94346080  0.94346080  0.30057737  1
  B  B78  1  0.44346080  0.44346080  0.19942263  1
  B  B79  1  0.55653920  0.55653920  0.80057737  1
  B  B80  1  0.12024552  0.37894638  0.74498749  1
  B  B81  1  0.62105362  0.87975448  0.25501251  1
  B  B82  1  0.12105362  0.37975448  0.24498749  1
  B  B83  1  0.62024552  0.87894638  0.75501251  1
  B  B84  1  0.87975448  0.62105362  0.25501251  1
  B  B85  1  0.37894638  0.12024552  0.74498749  1
  B  B86  1  0.87894638  0.62024552  0.75501251  1
  B  B87  1  0.37975448  0.12105362  0.24498749  1
  B  B88  1  0.29757680  0.59425895  0.94865142  1
  B  B89  1  0.40574105  0.70242320  0.05134858  1
  B  B90  1  0.90574105  0.20242320  0.44865142  1
  B  B91  1  0.79757680  0.09425895  0.55134858  1
  B  B92  1  0.70242320  0.40574105  0.05134858  1
  B  B93  1  0.59425895  0.29757680  0.94865142  1
  B  B94  1  0.09425895  0.79757680  0.55134858  1
  B  B95  1  0.20242320  0.90574105  0.44865142  1
  B  B96  1  0.04906387  0.45109404  0.60036199  1
  B  B97  1  0.54890596  0.95093613  0.39963801  1
  B  B98  1  0.04890596  0.45093613  0.10036199  1
  B  B99  1  0.54906387  0.95109404  0.89963801  1
  B  B100  1  0.95093613  0.54890596  0.39963801  1
  B  B101  1  0.45109404  0.04906387  0.60036199  1
  B  B102  1  0.95109404  0.54906387  0.89963801  1
  B  B103  1  0.45093613  0.04890596  0.10036199  1
