# generated using pymatgen
data_La2Th8O19
_symmetry_space_group_name_H-M   'P 1'
_cell_length_a   3.80960700
_cell_length_b   4.08125200
_cell_length_c   27.82495000
_cell_angle_alpha   90.00000000
_cell_angle_beta   90.00000000
_cell_angle_gamma   90.00000000
_symmetry_Int_Tables_number   1
_chemical_formula_structural   La2Th8O19
_chemical_formula_sum   'La2 Th8 O19'
_cell_volume   432.62138178
_cell_formula_units_Z   1
loop_
 _symmetry_equiv_pos_site_id
 _symmetry_equiv_pos_as_xyz
  1  'x, y, z'
loop_
 _atom_site_type_symbol
 _atom_site_label
 _atom_site_symmetry_multiplicity
 _atom_site_fract_x
 _atom_site_fract_y
 _atom_site_fract_z
 _atom_site_occupancy
  La  La0  1  0.00000000  0.00000000  0.00487400  1
  La  La1  1  0.50000000  0.50000000  0.89449700  1
  Th  Th2  1  0.00000000  0.00000000  0.79859200  1
  Th  Th3  1  0.50000000  0.50000000  0.69954400  1
  Th  Th4  1  0.00000000  0.00000000  0.59950200  1
  Th  Th5  1  0.50000000  0.50000000  0.49949900  1
  Th  Th6  1  0.00000000  0.00000000  0.39946200  1
  Th  Th7  1  0.50000000  0.50000000  0.29939200  1
  Th  Th8  1  0.00000000  0.00000000  0.19954300  1
  Th  Th9  1  0.50000000  0.50000000  0.09911400  1
  O  O10  1  0.00000000  0.50000000  0.74958500  1
  O  O11  1  0.50000000  0.00000000  0.64889100  1
  O  O12  1  0.00000000  0.50000000  0.54906400  1
  O  O13  1  0.50000000  0.00000000  0.44901000  1
  O  O14  1  0.00000000  0.50000000  0.34890200  1
  O  O15  1  0.50000000  0.00000000  0.24917300  1
  O  O16  1  0.00000000  0.50000000  0.14818100  1
  O  O17  1  0.50000000  0.00000000  0.05177300  1
  O  O18  1  0.50000000  0.00000000  0.15193100  1
  O  O19  1  0.00000000  0.50000000  0.04956200  1
  O  O20  1  0.50000000  0.00000000  0.95299800  1
  O  O21  1  0.50000000  0.00000000  0.84613700  1
  O  O22  1  0.00000000  0.50000000  0.85339700  1
  O  O23  1  0.50000000  0.00000000  0.75023600  1
  O  O24  1  0.00000000  0.50000000  0.65171100  1
  O  O25  1  0.50000000  0.00000000  0.55139700  1
  O  O26  1  0.00000000  0.50000000  0.45142400  1
  O  O27  1  0.50000000  0.00000000  0.35141700  1
  O  O28  1  0.00000000  0.50000000  0.25119200  1
