# generated using pymatgen
data_NaCaMgCr(SiO3)4
_symmetry_space_group_name_H-M   'P 1'
_cell_length_a   6.63102618
_cell_length_b   6.63102720
_cell_length_c   10.67075926
_cell_angle_alpha   77.67935633
_cell_angle_beta   77.67944304
_cell_angle_gamma   84.72989335
_symmetry_Int_Tables_number   1
_chemical_formula_structural   NaCaMgCr(SiO3)4
_chemical_formula_sum   'Na2 Ca2 Mg2 Cr2 Si8 O24'
_cell_volume   447.30769561
_cell_formula_units_Z   2
loop_
 _symmetry_equiv_pos_site_id
 _symmetry_equiv_pos_as_xyz
  1  'x, y, z'
loop_
 _atom_site_type_symbol
 _atom_site_label
 _atom_site_symmetry_multiplicity
 _atom_site_fract_x
 _atom_site_fract_y
 _atom_site_fract_z
 _atom_site_occupancy
  Na  Na0  1  0.70128900  0.29872900  0.37501700  1
  Na  Na1  1  0.70127000  0.29870700  0.87498900  1
  Ca  Ca2  1  0.30210100  0.69789800  0.12500300  1
  Ca  Ca3  1  0.30212500  0.69787000  0.62500100  1
  Mg  Mg4  1  0.09150300  0.90848600  0.37498500  1
  Mg  Mg5  1  0.09151200  0.90849600  0.87500100  1
  Cr  Cr6  1  0.90575800  0.09427400  0.62498100  1
  Cr  Cr7  1  0.90545800  0.09456000  0.12500400  1
  Si  Si8  1  0.61973800  0.80412800  0.36372500  1
  Si  Si9  1  0.61974600  0.80412100  0.86371600  1
  Si  Si10  1  0.19586900  0.38023800  0.38627500  1
  Si  Si11  1  0.19586100  0.38026100  0.88628700  1
  Si  Si12  1  0.38219000  0.19806100  0.13278000  1
  Si  Si13  1  0.38220300  0.19801900  0.63279100  1
  Si  Si14  1  0.80195000  0.61782800  0.11721400  1
  Si  Si15  1  0.80197500  0.61779900  0.61721100  1
  O  O16  1  0.80283700  0.96861500  0.31485700  1
  O  O17  1  0.80286700  0.96857700  0.81486300  1
  O  O18  1  0.03141300  0.19711300  0.43515700  1
  O  O19  1  0.03138100  0.19715700  0.93514500  1
  O  O20  1  0.19816700  0.03258800  0.17486000  1
  O  O21  1  0.19822900  0.03250200  0.67488400  1
  O  O22  1  0.96744400  0.80180400  0.07514300  1
  O  O23  1  0.96749700  0.80177000  0.57512200  1
  O  O24  1  0.62964100  0.66251600  0.24963500  1
  O  O25  1  0.62966600  0.66249300  0.74963400  1
  O  O26  1  0.33748700  0.37034900  0.00036900  1
  O  O27  1  0.33749600  0.37033800  0.50036400  1
  O  O28  1  0.35971900  0.33610700  0.24882400  1
  O  O29  1  0.35967200  0.33606300  0.74883400  1
  O  O30  1  0.66391900  0.64031100  0.00117500  1
  O  O31  1  0.66392700  0.64032100  0.50116900  1
  O  O32  1  0.38587700  0.88690100  0.40811200  1
  O  O33  1  0.38590000  0.88690200  0.90811200  1
  O  O34  1  0.11304500  0.61406700  0.34187300  1
  O  O35  1  0.11309500  0.61411100  0.84189200  1
  O  O36  1  0.61520100  0.10515100  0.09579000  1
  O  O37  1  0.61518800  0.10513000  0.59585100  1
  O  O38  1  0.89492400  0.38481800  0.15419400  1
  O  O39  1  0.89486300  0.38481500  0.65416100  1
