# generated using pymatgen
data_Y5SbPt2
_symmetry_space_group_name_H-M   'P 1'
_cell_length_a   8.81562478
_cell_length_b   8.81562478
_cell_length_c   8.81562478
_cell_angle_alpha   127.57539863
_cell_angle_beta   127.57539863
_cell_angle_gamma   77.31388213
_symmetry_Int_Tables_number   1
_chemical_formula_structural   Y5SbPt2
_chemical_formula_sum   'Y10 Sb2 Pt4'
_cell_volume   417.50966976
_cell_formula_units_Z   2
loop_
 _symmetry_equiv_pos_site_id
 _symmetry_equiv_pos_as_xyz
  1  'x, y, z'
loop_
 _atom_site_type_symbol
 _atom_site_label
 _atom_site_symmetry_multiplicity
 _atom_site_fract_x
 _atom_site_fract_y
 _atom_site_fract_z
 _atom_site_occupancy
  Y  Y0  1  0.00000000  0.00000000  0.00000000  1
  Y  Y1  1  0.50000000  0.50000000  0.00000000  1
  Y  Y2  1  0.79736800  0.29736800  0.81581600  1
  Y  Y3  1  0.20263200  0.70263200  0.18418400  1
  Y  Y4  1  0.48155100  0.98155100  0.18418400  1
  Y  Y5  1  0.29736800  0.48155100  0.50000000  1
  Y  Y6  1  0.01844900  0.20263200  0.50000000  1
  Y  Y7  1  0.51844900  0.01844900  0.81581600  1
  Y  Y8  1  0.70263200  0.51844900  0.50000000  1
  Y  Y9  1  0.98155100  0.79736800  0.50000000  1
  Sb  Sb10  1  0.25000000  0.25000000  0.00000000  1
  Sb  Sb11  1  0.75000000  0.75000000  0.00000000  1
  Pt  Pt12  1  0.13770200  0.63770200  0.77540400  1
  Pt  Pt13  1  0.86229800  0.36229800  0.22459600  1
  Pt  Pt14  1  0.63770200  0.86229800  0.50000000  1
  Pt  Pt15  1  0.36229800  0.13770200  0.50000000  1
