# generated using pymatgen
data_CsPbCl3
_symmetry_space_group_name_H-M   'P 1'
_cell_length_a   5.81099929
_cell_length_b   11.27177584
_cell_length_c   7.96819999
_cell_angle_alpha   44.98454441
_cell_angle_beta   90.00000000
_cell_angle_gamma   90.00000000
_symmetry_Int_Tables_number   1
_chemical_formula_structural   CsPbCl3
_chemical_formula_sum   'Cs2 Pb2 Cl6'
_cell_volume   368.95313981
_cell_formula_units_Z   2
loop_
 _symmetry_equiv_pos_site_id
 _symmetry_equiv_pos_as_xyz
  1  'x, y, z'
loop_
 _atom_site_type_symbol
 _atom_site_label
 _atom_site_symmetry_multiplicity
 _atom_site_fract_x
 _atom_site_fract_y
 _atom_site_fract_z
 _atom_site_occupancy
  Cs  Cs0  1  0.50000000  0.49258678  0.50000000  1
  Cs  Cs1  1  0.50000000  0.99428740  0.50000000  1
  Pb  Pb2  1  0.00000000  0.99264457  0.00025538  1
  Pb  Pb3  1  0.00000000  0.49290095  0.99974462  1
  Cl  Cl4  1  0.00000000  0.18348332  0.11868808  1
  Cl  Cl5  1  0.50000000  0.49217531  0.00085698  1
  Cl  Cl6  1  0.50000000  0.99303229  0.99914302  1
  Cl  Cl7  1  0.00000000  0.30136163  0.50000000  1
  Cl  Cl8  1  0.00000000  0.68335635  0.50000000  1
  Cl  Cl9  1  0.00000000  0.80217140  0.88131192  1
