# generated using pymatgen
data_Zr2FeCo3
_symmetry_space_group_name_H-M   'P 1'
_cell_length_a   5.00324434
_cell_length_b   5.00324434
_cell_length_c   4.88903842
_cell_angle_alpha   90.00000000
_cell_angle_beta   59.22422475
_cell_angle_gamma   120.00000000
_symmetry_Int_Tables_number   1
_chemical_formula_structural   Zr2FeCo3
_chemical_formula_sum   'Zr2 Fe1 Co3'
_cell_volume   85.51033689
_cell_formula_units_Z   1
loop_
 _symmetry_equiv_pos_site_id
 _symmetry_equiv_pos_as_xyz
  1  'x, y, z'
loop_
 _atom_site_type_symbol
 _atom_site_label
 _atom_site_symmetry_multiplicity
 _atom_site_fract_x
 _atom_site_fract_y
 _atom_site_fract_z
 _atom_site_occupancy
  Zr  Zr0  1  0.49680500  0.74840200  0.75479300  1
  Zr  Zr1  1  0.00319500  0.00159800  0.99520700  1
  Fe  Fe2  1  0.75000000  0.37500000  0.87500000  1
  Co  Co3  1  0.25000000  0.37500000  0.37500000  1
  Co  Co4  1  0.25000000  0.87500000  0.37500000  1
  Co  Co5  1  0.75000000  0.37500000  0.37500000  1
