# generated using pymatgen
data_Ba2CaWO6
_symmetry_space_group_name_H-M   'P 1'
_cell_length_a   6.04663668
_cell_length_b   6.02740769
_cell_length_c   6.02740769
_cell_angle_alpha   59.90926933
_cell_angle_beta   59.82073319
_cell_angle_gamma   59.82073317
_symmetry_Int_Tables_number   1
_chemical_formula_structural   Ba2CaWO6
_chemical_formula_sum   'Ba2 Ca1 W1 O6'
_cell_volume   154.80352770
_cell_formula_units_Z   1
loop_
 _symmetry_equiv_pos_site_id
 _symmetry_equiv_pos_as_xyz
  1  'x, y, z'
loop_
 _atom_site_type_symbol
 _atom_site_label
 _atom_site_symmetry_multiplicity
 _atom_site_fract_x
 _atom_site_fract_y
 _atom_site_fract_z
 _atom_site_occupancy
  O  O0  1  0.74977414  0.75210675  0.29193119  1
  O  O1  1  0.25022597  0.70806879  0.24789324  1
  O  O2  1  0.25022639  0.24789433  0.70806943  1
  O  O3  1  0.74977333  0.29193026  0.75210734  1
  O  O4  1  0.18596041  0.27128208  0.27128267  1
  O  O5  1  0.81404080  0.72871697  0.72871863  1
  Ca  Ca6  1  0.49999948  0.99999942  0.00000062  1
  Ba  Ba7  1  0.25151479  0.75026384  0.75026359  1
  Ba  Ba8  1  0.74848383  0.24973726  0.24973632  1
  W  W9  1  0.99999955  0.49999909  0.50000133  1
