# generated using pymatgen
data_Yb3(GePd)4
_symmetry_space_group_name_H-M   'P 1'
_cell_length_a   8.10442424
_cell_length_b   8.10442424
_cell_length_c   8.10442424
_cell_angle_alpha   150.01632625
_cell_angle_beta   127.45912006
_cell_angle_gamma   61.68211253
_symmetry_Int_Tables_number   1
_chemical_formula_structural   Yb3(GePd)4
_chemical_formula_sum   'Yb3 Ge4 Pd4'
_cell_volume   209.31426257
_cell_formula_units_Z   1
loop_
 _symmetry_equiv_pos_site_id
 _symmetry_equiv_pos_as_xyz
  1  'x, y, z'
loop_
 _atom_site_type_symbol
 _atom_site_label
 _atom_site_symmetry_multiplicity
 _atom_site_fract_x
 _atom_site_fract_y
 _atom_site_fract_z
 _atom_site_occupancy
  Yb  Yb0  1  0.00000000  0.00000000  0.00000000  1
  Yb  Yb1  1  0.62689200  0.12689200  0.50000000  1
  Yb  Yb2  1  0.37310800  0.87310800  0.50000000  1
  Ge  Ge3  1  0.32259600  0.50000000  0.82259600  1
  Ge  Ge4  1  0.67740400  0.50000000  0.17740400  1
  Ge  Ge5  1  0.77943600  0.77943600  0.00000000  1
  Ge  Ge6  1  0.22056400  0.22056400  0.00000000  1
  Pd  Pd7  1  0.62630600  0.32533700  0.30096900  1
  Pd  Pd8  1  0.97563200  0.67466300  0.30096900  1
  Pd  Pd9  1  0.02436800  0.32533700  0.69903100  1
  Pd  Pd10  1  0.37369400  0.67466300  0.69903100  1
