# generated using pymatgen
data_Mg
_symmetry_space_group_name_H-M   'P 1'
_cell_length_a   7.86392161
_cell_length_b   7.86392161
_cell_length_c   7.86392107
_cell_angle_alpha   23.56252642
_cell_angle_beta   23.56252642
_cell_angle_gamma   23.56251851
_symmetry_Int_Tables_number   1
_chemical_formula_structural   Mg
_chemical_formula_sum   Mg3
_cell_volume   68.24940203
_cell_formula_units_Z   3
loop_
 _symmetry_equiv_pos_site_id
 _symmetry_equiv_pos_as_xyz
  1  'x, y, z'
loop_
 _atom_site_type_symbol
 _atom_site_label
 _atom_site_symmetry_multiplicity
 _atom_site_fract_x
 _atom_site_fract_y
 _atom_site_fract_z
 _atom_site_occupancy
  Mg  Mg0  1  0.00000000  0.00000000  0.00000000  1
  Mg  Mg1  1  0.22220800  0.22220800  0.22220800  1
  Mg  Mg2  1  0.77779200  0.77779200  0.77779200  1
