# generated using pymatgen
data_TbSbIr
_symmetry_space_group_name_H-M   'P 1'
_cell_length_a   4.53176700
_cell_length_b   7.22987000
_cell_length_c   7.94756700
_cell_angle_alpha   90.00000000
_cell_angle_beta   90.00000000
_cell_angle_gamma   90.00000000
_symmetry_Int_Tables_number   1
_chemical_formula_structural   TbSbIr
_chemical_formula_sum   'Tb4 Sb4 Ir4'
_cell_volume   260.39477091
_cell_formula_units_Z   4
loop_
 _symmetry_equiv_pos_site_id
 _symmetry_equiv_pos_as_xyz
  1  'x, y, z'
loop_
 _atom_site_type_symbol
 _atom_site_label
 _atom_site_symmetry_multiplicity
 _atom_site_fract_x
 _atom_site_fract_y
 _atom_site_fract_z
 _atom_site_occupancy
  Tb  Tb0  1  0.25000000  0.51408600  0.19077700  1
  Tb  Tb1  1  0.75000000  0.48591400  0.80922300  1
  Tb  Tb2  1  0.75000000  0.98591400  0.69077700  1
  Tb  Tb3  1  0.25000000  0.01408600  0.30922300  1
  Sb  Sb4  1  0.25000000  0.67568800  0.58808300  1
  Sb  Sb5  1  0.75000000  0.32431200  0.41191700  1
  Sb  Sb6  1  0.75000000  0.82431200  0.08808300  1
  Sb  Sb7  1  0.25000000  0.17568800  0.91191700  1
  Ir  Ir8  1  0.25000000  0.79191900  0.91064300  1
  Ir  Ir9  1  0.75000000  0.20808100  0.08935700  1
  Ir  Ir10  1  0.75000000  0.70808100  0.41064300  1
  Ir  Ir11  1  0.25000000  0.29191900  0.58935700  1
