# generated using pymatgen
data_Zr8Sc2O19
_symmetry_space_group_name_H-M   'P 1'
_cell_length_a   3.54565309
_cell_length_b   36.12590465
_cell_length_c   34.41651075
_cell_angle_alpha   5.26121343
_cell_angle_beta   58.75806270
_cell_angle_gamma   60.38882219
_symmetry_Int_Tables_number   1
_chemical_formula_structural   Zr8Sc2O19
_chemical_formula_sum   'Zr8 Sc2 O19'
_cell_volume   331.26527343
_cell_formula_units_Z   1
loop_
 _symmetry_equiv_pos_site_id
 _symmetry_equiv_pos_as_xyz
  1  'x, y, z'
loop_
 _atom_site_type_symbol
 _atom_site_label
 _atom_site_symmetry_multiplicity
 _atom_site_fract_x
 _atom_site_fract_y
 _atom_site_fract_z
 _atom_site_occupancy
  Zr  Zr0  1  0.00724424  0.00450722  0.99436597  1
  Zr  Zr1  1  0.00037076  0.10078006  0.99902492  1
  Zr  Zr2  1  0.99820440  0.19800792  0.00249011  1
  Zr  Zr3  1  0.99609446  0.29696344  0.00379570  1
  Zr  Zr4  1  0.99414632  0.39551270  0.00560913  1
  Zr  Zr5  1  0.99275330  0.49383482  0.00770647  1
  Zr  Zr6  1  0.98266501  0.68672390  0.01659513  1
  Zr  Zr7  1  0.98865084  0.59219592  0.00975511  1
  Sc  Sc8  1  0.01205438  0.81239017  0.98451229  1
  Sc  Sc9  1  0.97975538  0.88142928  0.02321340  1
  O  O10  1  0.24561658  0.09721875  0.25347656  1
  O  O11  1  0.23363946  0.18758987  0.26551266  1
  O  O12  1  0.26118781  0.30967922  0.23790097  1
  O  O13  1  0.20839754  0.36723210  0.29095987  1
  O  O14  1  0.26733815  0.51599823  0.23000222  1
  O  O15  1  0.69954006  0.96149710  0.79812863  1
  O  O16  1  0.77253374  0.12155610  0.72305487  1
  O  O17  1  0.23324319  0.68715755  0.26605307  1
  O  O18  1  0.79711743  0.23711534  0.70360582  1
  O  O19  1  0.27913357  0.82356448  0.22054440  1
  O  O20  1  0.74278880  0.29322115  0.75847357  1
  O  O21  1  0.23299878  0.88716115  0.26604857  1
  O  O22  1  0.77853070  0.42236866  0.72203918  1
  O  O23  1  0.25732813  0.00649623  0.24187971  1
  O  O24  1  0.75056195  0.49968732  0.75039085  1
  O  O25  1  0.75903254  0.60656015  0.74179982  1
  O  O26  1  0.76448881  0.71084516  0.73644355  1
  O  O27  1  0.73477393  0.78727940  0.76590075  1
  O  O28  1  0.77480974  0.91942662  0.72571673  1
