# generated using pymatgen
data_Er2AlFe3
_symmetry_space_group_name_H-M   'P 1'
_cell_length_a   5.17712614
_cell_length_b   5.17712614
_cell_length_c   5.15529122
_cell_angle_alpha   90.00000000
_cell_angle_beta   59.85979366
_cell_angle_gamma   120.00000000
_symmetry_Int_Tables_number   1
_chemical_formula_structural   Er2AlFe3
_chemical_formula_sum   'Er2 Al1 Fe3'
_cell_volume   97.49718489
_cell_formula_units_Z   1
loop_
 _symmetry_equiv_pos_site_id
 _symmetry_equiv_pos_as_xyz
  1  'x, y, z'
loop_
 _atom_site_type_symbol
 _atom_site_label
 _atom_site_symmetry_multiplicity
 _atom_site_fract_x
 _atom_site_fract_y
 _atom_site_fract_z
 _atom_site_occupancy
  Er  Er0  1  0.50582400  0.75291200  0.74126400  1
  Er  Er1  1  0.99417600  0.99708800  0.00873600  1
  Al  Al2  1  0.75000000  0.37500000  0.87500000  1
  Fe  Fe3  1  0.25000000  0.37500000  0.37500000  1
  Fe  Fe4  1  0.25000000  0.87500000  0.37500000  1
  Fe  Fe5  1  0.75000000  0.37500000  0.37500000  1
