# generated using pymatgen
data_Cs2Hf(WO4)3
_symmetry_space_group_name_H-M   'P 1'
_cell_length_a   7.43840428
_cell_length_b   7.43842633
_cell_length_c   7.51180541
_cell_angle_alpha   90.00000000
_cell_angle_beta   60.32333508
_cell_angle_gamma   120.00009802
_symmetry_Int_Tables_number   1
_chemical_formula_structural   Cs2Hf(WO4)3
_chemical_formula_sum   'Cs2 Hf1 W3 O12'
_cell_volume   295.32133799
_cell_formula_units_Z   1
loop_
 _symmetry_equiv_pos_site_id
 _symmetry_equiv_pos_as_xyz
  1  'x, y, z'
loop_
 _atom_site_type_symbol
 _atom_site_label
 _atom_site_symmetry_multiplicity
 _atom_site_fract_x
 _atom_site_fract_y
 _atom_site_fract_z
 _atom_site_occupancy
  Cs  Cs0  1  0.25476527  0.13135137  0.11769327  1
  Cs  Cs1  1  0.74523473  0.87658610  0.88230673  1
  Hf  Hf2  1  0.00000000  0.50369977  0.00000000  1
  W  W3  1  0.50000774  0.00388804  0.50006720  1
  W  W4  1  0.49999226  0.50388030  0.49993280  1
  W  W5  1  0.00000000  0.50386655  0.50000000  1
  O  O6  1  0.61727092  0.81239284  0.44447780  1
  O  O7  1  0.87329352  0.44034866  0.80043020  1
  O  O8  1  0.26293187  0.82997535  0.80044094  1
  O  O9  1  0.24689423  0.44201057  0.44444971  1
  O  O10  1  0.26291942  0.44033588  0.80042732  1
  O  O11  1  0.24687508  0.81239316  0.44450721  1
  O  O12  1  0.38272908  0.19512192  0.55552220  1
  O  O13  1  0.12670648  0.56705515  0.19956980  1
  O  O14  1  0.73708058  0.17741646  0.19957268  1
  O  O15  1  0.75312492  0.56551808  0.55549279  1
  O  O16  1  0.73706813  0.56704347  0.19955906  1
  O  O17  1  0.75310577  0.19511634  0.55555029  1
