# generated using pymatgen
data_Ba3Er4O9
_symmetry_space_group_name_H-M   'P 1'
_cell_length_a   9.16862340
_cell_length_b   9.16862340
_cell_length_c   9.16862328
_cell_angle_alpha   38.88120365
_cell_angle_beta   38.88120365
_cell_angle_gamma   38.88120524
_symmetry_Int_Tables_number   1
_chemical_formula_structural   Ba3Er4O9
_chemical_formula_sum   'Ba3 Er4 O9'
_cell_volume   273.05027525
_cell_formula_units_Z   1
loop_
 _symmetry_equiv_pos_site_id
 _symmetry_equiv_pos_as_xyz
  1  'x, y, z'
loop_
 _atom_site_type_symbol
 _atom_site_label
 _atom_site_symmetry_multiplicity
 _atom_site_fract_x
 _atom_site_fract_y
 _atom_site_fract_z
 _atom_site_occupancy
  Ba  Ba0  1  0.99985200  0.99985200  0.99985200  1
  Ba  Ba1  1  0.83482000  0.83482000  0.83482000  1
  Ba  Ba2  1  0.42155300  0.42155300  0.42155300  1
  Er  Er3  1  0.57382100  0.57382100  0.57382100  1
  Er  Er4  1  0.13516400  0.13516400  0.13516400  1
  Er  Er5  1  0.26062200  0.26062200  0.26062200  1
  Er  Er6  1  0.69876300  0.69876300  0.69876300  1
  O  O7  1  0.42194300  0.95763300  0.53767900  1
  O  O8  1  0.95763300  0.53767900  0.42194300  1
  O  O9  1  0.53767900  0.42194300  0.95763300  1
  O  O10  1  0.30510800  0.87230200  0.40310100  1
  O  O11  1  0.87230200  0.40310100  0.30510800  1
  O  O12  1  0.40310100  0.30510800  0.87230200  1
  O  O13  1  0.41830400  0.85995500  0.97318000  1
  O  O14  1  0.97318000  0.41830400  0.85995500  1
  O  O15  1  0.85995500  0.97318000  0.41830400  1
