# generated using pymatgen
data_Ba5Sm8Mn4O21
_symmetry_space_group_name_H-M   'P 1'
_cell_length_a   5.89146494
_cell_length_b   10.50518043
_cell_length_c   10.50518042
_cell_angle_alpha   85.49026813
_cell_angle_beta   73.71546674
_cell_angle_gamma   73.71546673
_symmetry_Int_Tables_number   1
_chemical_formula_structural   Ba5Sm8Mn4O21
_chemical_formula_sum   'Ba5 Sm8 Mn4 O21'
_cell_volume   599.05285006
_cell_formula_units_Z   1
loop_
 _symmetry_equiv_pos_site_id
 _symmetry_equiv_pos_as_xyz
  1  'x, y, z'
loop_
 _atom_site_type_symbol
 _atom_site_label
 _atom_site_symmetry_multiplicity
 _atom_site_fract_x
 _atom_site_fract_y
 _atom_site_fract_z
 _atom_site_occupancy
  O  O0  1  0.09951535  0.89009318  0.40650927  1
  O  O1  1  0.50602507  0.59349074  0.89009399  1
  O  O2  1  0.98960869  0.40650887  0.10990686  1
  O  O3  1  0.39611857  0.10990644  0.59349155  1
  O  O4  1  0.90048441  0.10990644  0.59349088  1
  O  O5  1  0.49397470  0.40650887  0.10990616  1
  O  O6  1  0.01039108  0.59349074  0.89009329  1
  O  O7  1  0.60388297  0.89009318  0.40650832  1
  O  O8  1  0.92953019  0.86879175  0.77443315  1
  O  O9  1  0.70396286  0.22556747  0.86879157  1
  O  O10  1  0.79832234  0.77443314  0.13120818  1
  O  O11  1  0.57275374  0.13120786  0.22556688  1
  O  O12  1  0.07047135  0.13120786  0.22556672  1
  O  O13  1  0.29603818  0.77443314  0.13120830  1
  O  O14  1  0.20167870  0.22556747  0.86879169  1
  O  O15  1  0.42724603  0.86879175  0.77443327  1
  O  O16  1  0.37589976  0.65842460  0.58977676  1
  O  O17  1  0.50000080  0.00000000  0.99999987  1
  O  O18  1  0.62410129  0.34157602  0.41022311  1
  O  O19  1  0.96567660  0.41022318  0.65842479  1
  O  O20  1  0.03432267  0.58977743  0.34157536  1
  Mn  Mn21  1  0.95988302  0.78928494  0.29094937  1
  Mn  Mn22  1  0.25083177  0.70905083  0.78928552  1
  Mn  Mn23  1  0.74916800  0.29094879  0.21071463  1
  Mn  Mn24  1  0.04011675  0.21071467  0.70905077  1
  Ba  Ba25  1  0.46790697  0.39533881  0.66884818  1
  Ba  Ba26  1  0.13675474  0.33115215  0.39533854  1
  Ba  Ba27  1  0.86324453  0.66884846  0.60466066  1
  Ba  Ba28  1  0.53209457  0.60466081  0.33115168  1
  Ba  Ba29  1  0.00000000  0.00000000  0.00000000  1
  Sm  Sm30  1  0.58899046  0.05342256  0.76859767  1
  Sm  Sm31  1  0.35758734  0.23140235  0.05342297  1
  Sm  Sm32  1  0.64241193  0.76859826  0.94657718  1
  Sm  Sm33  1  0.41101108  0.94657705  0.23140220  1
  Sm  Sm34  1  0.75257603  0.07830065  0.41654548  1
  Sm  Sm35  1  0.16912313  0.58345431  0.07830058  1
  Sm  Sm36  1  0.83087840  0.41654531  0.92169928  1
  Sm  Sm37  1  0.24742374  0.92169897  0.58345467  1
