# generated using pymatgen
data_Rb2CeTa6(Br5O)3
_symmetry_space_group_name_H-M   'P 1'
_cell_length_a   9.59931419
_cell_length_b   9.59931419
_cell_length_c   18.10593000
_cell_angle_alpha   90.00000000
_cell_angle_beta   90.00000000
_cell_angle_gamma   120.00000130
_symmetry_Int_Tables_number   1
_chemical_formula_structural   Rb2CeTa6(Br5O)3
_chemical_formula_sum   'Rb4 Ce2 Ta12 Br30 O6'
_cell_volume   1444.88032058
_cell_formula_units_Z   2
loop_
 _symmetry_equiv_pos_site_id
 _symmetry_equiv_pos_as_xyz
  1  'x, y, z'
loop_
 _atom_site_type_symbol
 _atom_site_label
 _atom_site_symmetry_multiplicity
 _atom_site_fract_x
 _atom_site_fract_y
 _atom_site_fract_z
 _atom_site_occupancy
  Rb  Rb0  1  0.66666700  0.33333300  0.54748700  1
  Rb  Rb1  1  0.33333300  0.66666700  0.45251300  1
  Rb  Rb2  1  0.66666700  0.33333300  0.95251300  1
  Rb  Rb3  1  0.33333300  0.66666700  0.04748700  1
  Ce  Ce4  1  0.33333300  0.66666700  0.75000000  1
  Ce  Ce5  1  0.66666700  0.33333300  0.25000000  1
  Ta  Ta6  1  0.17267200  0.18937300  0.68575700  1
  Ta  Ta7  1  0.82732800  0.81062700  0.31424300  1
  Ta  Ta8  1  0.81062700  0.98329900  0.68575700  1
  Ta  Ta9  1  0.17267200  0.98329900  0.81424300  1
  Ta  Ta10  1  0.18937300  0.01670100  0.31424300  1
  Ta  Ta11  1  0.82732800  0.01670100  0.18575700  1
  Ta  Ta12  1  0.01670100  0.82732800  0.68575700  1
  Ta  Ta13  1  0.81062700  0.82732800  0.81424300  1
  Ta  Ta14  1  0.98329900  0.17267200  0.31424300  1
  Ta  Ta15  1  0.18937300  0.17267200  0.18575700  1
  Ta  Ta16  1  0.01670100  0.18937300  0.81424300  1
  Ta  Ta17  1  0.98329900  0.81062700  0.18575700  1
  Br  Br18  1  0.42845300  0.21422700  0.75000000  1
  Br  Br19  1  0.57154700  0.78577300  0.25000000  1
  Br  Br20  1  0.78577300  0.21422700  0.75000000  1
  Br  Br21  1  0.21422700  0.78577300  0.25000000  1
  Br  Br22  1  0.78577300  0.57154700  0.75000000  1
  Br  Br23  1  0.21422700  0.42845300  0.25000000  1
  Br  Br24  1  0.98096800  0.20426500  0.58527100  1
  Br  Br25  1  0.01903200  0.79573500  0.41472900  1
  Br  Br26  1  0.79573500  0.77670300  0.58527100  1
  Br  Br27  1  0.98096800  0.77670300  0.91472900  1
  Br  Br28  1  0.20426500  0.22329700  0.41472900  1
  Br  Br29  1  0.01903200  0.22329700  0.08527100  1
  Br  Br30  1  0.22329700  0.01903200  0.58527100  1
  Br  Br31  1  0.79573500  0.01903200  0.91472900  1
  Br  Br32  1  0.77670300  0.98096800  0.41472900  1
  Br  Br33  1  0.20426500  0.98096800  0.08527100  1
  Br  Br34  1  0.22329700  0.20426500  0.91472900  1
  Br  Br35  1  0.77670300  0.79573500  0.08527100  1
  Br  Br36  1  0.39669500  0.47084800  0.61620700  1
  Br  Br37  1  0.60330500  0.52915200  0.38379300  1
  Br  Br38  1  0.52915200  0.92584700  0.61620700  1
  Br  Br39  1  0.39669500  0.92584700  0.88379300  1
  Br  Br40  1  0.47084800  0.07415300  0.38379300  1
  Br  Br41  1  0.60330500  0.07415300  0.11620700  1
  Br  Br42  1  0.07415300  0.60330500  0.61620700  1
  Br  Br43  1  0.52915200  0.60330500  0.88379300  1
  Br  Br44  1  0.92584700  0.39669500  0.38379300  1
  Br  Br45  1  0.47084800  0.39669500  0.11620700  1
  Br  Br46  1  0.07415300  0.47084800  0.88379300  1
  Br  Br47  1  0.92584700  0.52915200  0.11620700  1
  O  O48  1  0.63722600  0.81861300  0.75000000  1
  O  O49  1  0.36277400  0.18138700  0.25000000  1
  O  O50  1  0.18138700  0.81861300  0.75000000  1
  O  O51  1  0.81861300  0.18138700  0.25000000  1
  O  O52  1  0.18138700  0.36277400  0.75000000  1
  O  O53  1  0.81861300  0.63722600  0.25000000  1
