# generated using pymatgen
data_RbLuBeF6
_symmetry_space_group_name_H-M   'P 1'
_cell_length_a   5.78021163
_cell_length_b   6.50037323
_cell_length_c   7.09199955
_cell_angle_alpha   113.72323170
_cell_angle_beta   90.00000000
_cell_angle_gamma   90.00000000
_symmetry_Int_Tables_number   1
_chemical_formula_structural   RbLuBeF6
_chemical_formula_sum   'Rb2 Lu2 Be2 F12'
_cell_volume   243.95451622
_cell_formula_units_Z   2
loop_
 _symmetry_equiv_pos_site_id
 _symmetry_equiv_pos_as_xyz
  1  'x, y, z'
loop_
 _atom_site_type_symbol
 _atom_site_label
 _atom_site_symmetry_multiplicity
 _atom_site_fract_x
 _atom_site_fract_y
 _atom_site_fract_z
 _atom_site_occupancy
  Rb  Rb0  1  0.75000000  0.07620165  0.20830172  1
  Rb  Rb1  1  0.25000000  0.92379835  0.79169828  1
  Lu  Lu2  1  0.75000000  0.39234181  0.82175878  1
  Lu  Lu3  1  0.25000000  0.60765819  0.17824122  1
  Be  Be4  1  0.75000000  0.76453207  0.53544506  1
  Be  Be5  1  0.25000000  0.23546793  0.46455494  1
  F  F6  1  0.96946908  0.75925002  0.40120147  1
  F  F7  1  0.03053092  0.24074998  0.59879853  1
  F  F8  1  0.46946908  0.24074998  0.59879853  1
  F  F9  1  0.53053092  0.75925002  0.40120147  1
  F  F10  1  0.75000000  0.56586128  0.60129592  1
  F  F11  1  0.25000000  0.43413872  0.39870408  1
  F  F12  1  0.99945684  0.67037902  0.96751405  1
  F  F13  1  0.00054316  0.32962098  0.03248595  1
  F  F14  1  0.49945684  0.32962098  0.03248595  1
  F  F15  1  0.50054316  0.67037902  0.96751405  1
  F  F16  1  0.75000000  0.99524406  0.73329567  1
  F  F17  1  0.25000000  0.00475594  0.26670433  1
