# generated using pymatgen
data_Na2TeW2O9
_symmetry_space_group_name_H-M   'P 1'
_cell_length_a   17.22228051
_cell_length_b   17.22228051
_cell_length_c   13.27904689
_cell_angle_alpha   71.81557583
_cell_angle_beta   71.81557583
_cell_angle_gamma   24.97150805
_symmetry_Int_Tables_number   1
_chemical_formula_structural   Na2TeW2O9
_chemical_formula_sum   'Na16 Te8 W16 O72'
_cell_volume   1575.54482409
_cell_formula_units_Z   8
loop_
 _symmetry_equiv_pos_site_id
 _symmetry_equiv_pos_as_xyz
  1  'x, y, z'
loop_
 _atom_site_type_symbol
 _atom_site_label
 _atom_site_symmetry_multiplicity
 _atom_site_fract_x
 _atom_site_fract_y
 _atom_site_fract_z
 _atom_site_occupancy
  Na  Na0  1  0.73604300  0.25489300  0.73574600  1
  Na  Na1  1  0.25489300  0.73604300  0.23574600  1
  Na  Na2  1  0.68423200  0.71224200  0.88167500  1
  Na  Na3  1  0.71224200  0.68423200  0.38167500  1
  Na  Na4  1  0.02358000  0.97692900  0.97142400  1
  Na  Na5  1  0.97692900  0.02358000  0.47142400  1
  Na  Na6  1  0.91056200  0.89574800  0.89350300  1
  Na  Na7  1  0.89574800  0.91056200  0.39350300  1
  Na  Na8  1  0.79491300  0.82412000  0.62889700  1
  Na  Na9  1  0.82412000  0.79491300  0.12889700  1
  Na  Na10  1  0.04712000  0.56261800  0.89434700  1
  Na  Na11  1  0.56261800  0.04712000  0.39434700  1
  Na  Na12  1  0.28264100  0.31646200  0.64608800  1
  Na  Na13  1  0.31646200  0.28264100  0.14608800  1
  Na  Na14  1  0.62625900  0.57511000  0.59450500  1
  Na  Na15  1  0.57511000  0.62625900  0.09450500  1
  Te  Te16  1  0.20802200  0.21509500  0.87594900  1
  Te  Te17  1  0.21509500  0.20802200  0.37594900  1
  Te  Te18  1  0.51668200  0.48809500  0.99311100  1
  Te  Te19  1  0.48809500  0.51668200  0.49311100  1
  Te  Te20  1  0.11906700  0.05333400  0.61181900  1
  Te  Te21  1  0.05333400  0.11906700  0.11181900  1
  Te  Te22  1  0.40098900  0.38408300  0.90754900  1
  Te  Te23  1  0.38408300  0.40098900  0.40754900  1
  W  W24  1  0.13151300  0.65269000  0.66479800  1
  W  W25  1  0.65269000  0.13151300  0.16479800  1
  W  W26  1  0.65265300  0.14963900  0.65851400  1
  W  W27  1  0.14963900  0.65265300  0.15851400  1
  W  W28  1  0.24047900  0.75619900  0.72011900  1
  W  W29  1  0.75619900  0.24047900  0.22011900  1
  W  W30  1  0.57875100  0.02553300  0.89498800  1
  W  W31  1  0.02553300  0.57875100  0.39498800  1
  W  W32  1  0.37362600  0.82357300  0.83279100  1
  W  W33  1  0.82357300  0.37362600  0.33279100  1
  W  W34  1  0.45899600  0.95418500  0.13869000  1
  W  W35  1  0.95418500  0.45899600  0.63869000  1
  W  W36  1  0.95376200  0.46876100  0.13350300  1
  W  W37  1  0.46876100  0.95376200  0.63350300  1
  W  W38  1  0.86021200  0.32929400  0.83899000  1
  W  W39  1  0.32929400  0.86021200  0.33899000  1
  O  O40  1  0.09882100  0.72033600  0.52465800  1
  O  O41  1  0.72033600  0.09882100  0.02465800  1
  O  O42  1  0.07271800  0.59804200  0.69681900  1
  O  O43  1  0.59804200  0.07271800  0.19681900  1
  O  O44  1  0.89321300  0.90040500  0.71400600  1
  O  O45  1  0.90040500  0.89321300  0.21400600  1
  O  O46  1  0.39407900  0.40506200  0.63788400  1
  O  O47  1  0.40506200  0.39407900  0.13788400  1
  O  O48  1  0.20187400  0.71538700  0.65125000  1
  O  O49  1  0.71538700  0.20187400  0.15125000  1
  O  O50  1  0.19386900  0.58104400  0.82298100  1
  O  O51  1  0.58104400  0.19386900  0.32298100  1
  O  O52  1  0.71870100  0.19870000  0.59330700  1
  O  O53  1  0.19870000  0.71870100  0.09330700  1
  O  O54  1  0.68303700  0.07974700  0.54988000  1
  O  O55  1  0.07974700  0.68303700  0.04988000  1
  O  O56  1  0.60320500  0.22318100  0.80256800  1
  O  O57  1  0.22318100  0.60320500  0.30256800  1
  O  O58  1  0.56210200  0.11565200  0.75698000  1
  O  O59  1  0.11565200  0.56210200  0.25698000  1
  O  O60  1  0.41549700  0.55380800  0.81089200  1
  O  O61  1  0.55380800  0.41549700  0.31089200  1
  O  O62  1  0.03886000  0.92181300  0.81300300  1
  O  O63  1  0.92181300  0.03886000  0.31300300  1
  O  O64  1  0.28558900  0.84002400  0.71747000  1
  O  O65  1  0.84002400  0.28558900  0.21747000  1
  O  O66  1  0.07587600  0.98726700  0.60044000  1
  O  O67  1  0.98726700  0.07587600  0.10044000  1
  O  O68  1  0.47802000  0.57811400  0.60102900  1
  O  O69  1  0.57811400  0.47802000  0.10102900  1
  O  O70  1  0.77460000  0.89123600  0.93593800  1
  O  O71  1  0.89123600  0.77460000  0.43593800  1
  O  O72  1  0.69465900  0.84188100  0.85506800  1
  O  O73  1  0.84188100  0.69465900  0.35506800  1
  O  O74  1  0.30312500  0.23088400  0.87893200  1
  O  O75  1  0.23088400  0.30312500  0.37893200  1
  O  O76  1  0.53307500  0.99344600  0.05330600  1
  O  O77  1  0.99344600  0.53307500  0.55330600  1
  O  O78  1  0.39263300  0.27466500  0.95447000  1
  O  O79  1  0.27466500  0.39263300  0.45447000  1
  O  O80  1  0.44331800  0.80433400  0.92872600  1
  O  O81  1  0.80433400  0.44331800  0.42872600  1
  O  O82  1  0.35896900  0.92675900  0.71317300  1
  O  O83  1  0.92675900  0.35896900  0.21317300  1
  O  O84  1  0.61691400  0.57845300  0.78345600  1
  O  O85  1  0.57845300  0.61691400  0.28345600  1
  O  O86  1  0.10347300  0.06553700  0.87075500  1
  O  O87  1  0.06553700  0.10347300  0.37075500  1
  O  O88  1  0.35744400  0.72118400  0.93174000  1
  O  O89  1  0.72118400  0.35744400  0.43174000  1
  O  O90  1  0.48239500  0.88187200  0.04064600  1
  O  O91  1  0.88187200  0.48239500  0.54064600  1
  O  O92  1  0.20538200  0.21066900  0.11382200  1
  O  O93  1  0.21066900  0.20538200  0.61382200  1
  O  O94  1  0.69911300  0.70583300  0.19381300  1
  O  O95  1  0.70583300  0.69911300  0.69381300  1
  O  O96  1  0.34845400  0.95124300  0.25197200  1
  O  O97  1  0.95124300  0.34845400  0.75197200  1
  O  O98  1  0.41355200  0.04501000  0.26866900  1
  O  O99  1  0.04501000  0.41355200  0.76866900  1
  O  O100  1  0.89060400  0.50629700  0.01440600  1
  O  O101  1  0.50629700  0.89060400  0.51440600  1
  O  O102  1  0.00284400  0.53343200  0.08500100  1
  O  O103  1  0.53343200  0.00284400  0.58500100  1
  O  O104  1  0.01497700  0.40544500  0.28748100  1
  O  O105  1  0.40544500  0.01497700  0.78748100  1
  O  O106  1  0.81900100  0.39343500  0.95920000  1
  O  O107  1  0.39343500  0.81900100  0.45920000  1
  O  O108  1  0.74663500  0.31752600  0.90246700  1
  O  O109  1  0.31752600  0.74663500  0.40246700  1
  O  O110  1  0.89994100  0.24918400  0.70056700  1
  O  O111  1  0.24918400  0.89994100  0.20056700  1
