# generated using pymatgen
data_Mn3Nb8FeO24
_symmetry_space_group_name_H-M   'P 1'
_cell_length_a   5.88630500
_cell_length_b   5.14354500
_cell_length_c   14.59176320
_cell_angle_alpha   89.84528456
_cell_angle_beta   90.00000000
_cell_angle_gamma   90.00000000
_symmetry_Int_Tables_number   1
_chemical_formula_structural   Mn3Nb8FeO24
_chemical_formula_sum   'Mn3 Nb8 Fe1 O24'
_cell_volume   441.78553793
_cell_formula_units_Z   1
loop_
 _symmetry_equiv_pos_site_id
 _symmetry_equiv_pos_as_xyz
  1  'x, y, z'
loop_
 _atom_site_type_symbol
 _atom_site_label
 _atom_site_symmetry_multiplicity
 _atom_site_fract_x
 _atom_site_fract_y
 _atom_site_fract_z
 _atom_site_occupancy
  Mn  Mn0  1  0.17622200  0.00000000  0.50000000  1
  Mn  Mn1  1  0.67288800  0.00000000  0.00000000  1
  Mn  Mn2  1  0.82379200  0.50000000  0.50000000  1
  Nb  Nb3  1  0.31847800  0.50817300  0.66265400  1
  Nb  Nb4  1  0.18132200  0.00699500  0.83923300  1
  Nb  Nb5  1  0.18132200  0.99300500  0.16076700  1
  Nb  Nb6  1  0.31847800  0.49182700  0.33734600  1
  Nb  Nb7  1  0.68111200  0.99161700  0.33758200  1
  Nb  Nb8  1  0.81916000  0.49142300  0.16151500  1
  Nb  Nb9  1  0.81916000  0.50857700  0.83848500  1
  Nb  Nb10  1  0.68111200  0.00838300  0.66241800  1
  Fe  Fe11  1  0.33082400  0.50000000  0.00000000  1
  O  O12  1  0.12807800  0.66215200  0.24411800  1
  O  O13  1  0.37195000  0.16089000  0.25494900  1
  O  O14  1  0.37195000  0.83911000  0.74505100  1
  O  O15  1  0.12807800  0.33784800  0.75588200  1
  O  O16  1  0.87245100  0.83811300  0.75649300  1
  O  O17  1  0.62905600  0.33901800  0.74483800  1
  O  O18  1  0.62905600  0.66098200  0.25516200  1
  O  O19  1  0.87245100  0.16188700  0.24350700  1
  O  O20  1  0.10199900  0.68569800  0.90289100  1
  O  O21  1  0.39989300  0.18955400  0.59868000  1
  O  O22  1  0.39989300  0.81044600  0.40132000  1
  O  O23  1  0.10199900  0.31430200  0.09710900  1
  O  O24  1  0.89786100  0.81251100  0.09836500  1
  O  O25  1  0.60089300  0.31026600  0.40123400  1
  O  O26  1  0.60089300  0.68973400  0.59876600  1
  O  O27  1  0.89786100  0.18748900  0.90163500  1
  O  O28  1  0.11784600  0.65441500  0.58124500  1
  O  O29  1  0.37990200  0.15865600  0.91938000  1
  O  O30  1  0.37990200  0.84134400  0.08062000  1
  O  O31  1  0.11784600  0.34558500  0.41875500  1
  O  O32  1  0.88224600  0.84572600  0.41879000  1
  O  O33  1  0.61589100  0.34783200  0.08061100  1
  O  O34  1  0.61589100  0.65216800  0.91938900  1
  O  O35  1  0.88224600  0.15427400  0.58121000  1
