# generated using pymatgen
data_Pr(SiP3)2
_symmetry_space_group_name_H-M   'P 1'
_cell_length_a   14.97794618
_cell_length_b   14.97794618
_cell_length_c   10.41025200
_cell_angle_alpha   90.00000000
_cell_angle_beta   90.00000000
_cell_angle_gamma   140.23575465
_symmetry_Int_Tables_number   1
_chemical_formula_structural   Pr(SiP3)2
_chemical_formula_sum   'Pr8 Si16 P48'
_cell_volume   1493.80769556
_cell_formula_units_Z   8
loop_
 _symmetry_equiv_pos_site_id
 _symmetry_equiv_pos_as_xyz
  1  'x, y, z'
loop_
 _atom_site_type_symbol
 _atom_site_label
 _atom_site_symmetry_multiplicity
 _atom_site_fract_x
 _atom_site_fract_y
 _atom_site_fract_z
 _atom_site_occupancy
  Pr  Pr0  1  0.31080800  0.68919200  0.25913100  1
  Pr  Pr1  1  0.68919200  0.31080800  0.75913100  1
  Pr  Pr2  1  0.58065300  0.41934700  0.35249200  1
  Pr  Pr3  1  0.41934700  0.58065300  0.85249200  1
  Pr  Pr4  1  0.76593600  0.23406400  0.23852900  1
  Pr  Pr5  1  0.23406400  0.76593600  0.73852900  1
  Pr  Pr6  1  0.95947900  0.04052100  0.77695200  1
  Pr  Pr7  1  0.04052100  0.95947900  0.27695200  1
  Si  Si8  1  0.34252600  0.01216100  0.13556100  1
  Si  Si9  1  0.65747400  0.98783900  0.63556100  1
  Si  Si10  1  0.01216100  0.34252600  0.63556100  1
  Si  Si11  1  0.98783900  0.65747400  0.13556100  1
  Si  Si12  1  0.34999700  0.99329500  0.46843400  1
  Si  Si13  1  0.65000300  0.00670500  0.96843400  1
  Si  Si14  1  0.99329500  0.34999700  0.96843400  1
  Si  Si15  1  0.00670500  0.65000300  0.46843400  1
  Si  Si16  1  0.75881700  0.92013000  0.17653800  1
  Si  Si17  1  0.24118300  0.07987000  0.67653800  1
  Si  Si18  1  0.92013000  0.75881700  0.67653800  1
  Si  Si19  1  0.07987000  0.24118300  0.17653800  1
  Si  Si20  1  0.60392800  0.73685900  0.49528800  1
  Si  Si21  1  0.39607200  0.26314100  0.99528800  1
  Si  Si22  1  0.73685900  0.60392800  0.99528800  1
  Si  Si23  1  0.26314100  0.39607200  0.49528800  1
  P  P24  1  0.45010300  0.96461000  0.16595300  1
  P  P25  1  0.54989700  0.03539000  0.66595300  1
  P  P26  1  0.96461000  0.45010300  0.66595300  1
  P  P27  1  0.03539000  0.54989700  0.16595300  1
  P  P28  1  0.49255300  0.19983400  0.99950200  1
  P  P29  1  0.50744700  0.80016600  0.49950200  1
  P  P30  1  0.19983400  0.49255300  0.49950200  1
  P  P31  1  0.80016600  0.50744700  0.99950200  1
  P  P32  1  0.84354900  0.15645100  0.50043200  1
  P  P33  1  0.15645100  0.84354900  0.00043200  1
  P  P34  1  0.95825700  0.04174300  0.07493300  1
  P  P35  1  0.04174300  0.95825700  0.57493300  1
  P  P36  1  0.56886100  0.10222800  0.46630800  1
  P  P37  1  0.43113900  0.89777200  0.96630800  1
  P  P38  1  0.10222800  0.56886100  0.96630800  1
  P  P39  1  0.89777200  0.43113900  0.46630800  1
  P  P40  1  0.80073200  0.89374100  0.37549500  1
  P  P41  1  0.19926800  0.10625900  0.87549500  1
  P  P42  1  0.89374100  0.80073200  0.87549500  1
  P  P43  1  0.10625900  0.19926800  0.37549500  1
  P  P44  1  0.42456600  0.57543400  0.21555800  1
  P  P45  1  0.57543400  0.42456600  0.71555800  1
  P  P46  1  0.77249600  0.22750400  0.95261200  1
  P  P47  1  0.22750400  0.77249600  0.45261200  1
  P  P48  1  0.46936500  0.53063500  0.39123100  1
  P  P49  1  0.53063500  0.46936500  0.89123100  1
  P  P50  1  0.32794000  0.08478300  0.31681300  1
  P  P51  1  0.67206000  0.91521700  0.81681300  1
  P  P52  1  0.08478300  0.32794000  0.81681300  1
  P  P53  1  0.91521700  0.67206000  0.31681300  1
  P  P54  1  0.61693500  0.70152200  0.10020400  1
  P  P55  1  0.38306500  0.29847800  0.60020400  1
  P  P56  1  0.70152200  0.61693500  0.60020400  1
  P  P57  1  0.29847800  0.38306500  0.10020400  1
  P  P58  1  0.65480000  0.34520000  0.14785000  1
  P  P59  1  0.34520000  0.65480000  0.64785000  1
  P  P60  1  0.92255900  0.07744100  0.49977700  1
  P  P61  1  0.07744100  0.92255900  0.99977700  1
  P  P62  1  0.68156300  0.31843700  0.47751900  1
  P  P63  1  0.31843700  0.68156300  0.97751900  1
  P  P64  1  0.32915700  0.27009500  0.18346200  1
  P  P65  1  0.67084300  0.72990500  0.68346200  1
  P  P66  1  0.27009500  0.32915700  0.68346200  1
  P  P67  1  0.72990500  0.67084300  0.18346200  1
  P  P68  1  0.63874700  0.95311500  0.17724900  1
  P  P69  1  0.36125300  0.04688500  0.67724900  1
  P  P70  1  0.95311500  0.63874700  0.67724900  1
  P  P71  1  0.04688500  0.36125300  0.17724900  1
