# generated using pymatgen
data_N2
_symmetry_space_group_name_H-M   'P 1'
_cell_length_a   4.98580005
_cell_length_b   4.98580005
_cell_length_c   4.98580005
_cell_angle_alpha   109.47122063
_cell_angle_beta   109.47122063
_cell_angle_gamma   109.47122063
_symmetry_Int_Tables_number   1
_chemical_formula_structural   N2
_chemical_formula_sum   N10
_cell_volume   95.40753639
_cell_formula_units_Z   5
loop_
 _symmetry_equiv_pos_site_id
 _symmetry_equiv_pos_as_xyz
  1  'x, y, z'
loop_
 _atom_site_type_symbol
 _atom_site_label
 _atom_site_symmetry_multiplicity
 _atom_site_fract_x
 _atom_site_fract_y
 _atom_site_fract_z
 _atom_site_occupancy
  N  N0  1  0.00000000  0.71340900  0.71340900  1
  N  N1  1  0.28659100  0.00000000  0.28659100  1
  N  N2  1  0.28659100  0.28659100  0.00000000  1
  N  N3  1  0.00000000  0.28659100  0.28659100  1
  N  N4  1  0.71340900  0.00000000  0.71340900  1
  N  N5  1  0.71340900  0.71340900  0.00000000  1
  N  N6  1  0.27190400  0.00000000  0.00000000  1
  N  N7  1  0.00000000  0.27190400  0.00000000  1
  N  N8  1  0.00000000  0.00000000  0.27190400  1
  N  N9  1  0.72809600  0.72809600  0.72809600  1
