# generated using pymatgen
data_HoSbO4
_symmetry_space_group_name_H-M   'P 1'
_cell_length_a   5.38253700
_cell_length_b   7.55572900
_cell_length_c   7.68353888
_cell_angle_alpha   81.10911215
_cell_angle_beta   90.00000000
_cell_angle_gamma   90.00000000
_symmetry_Int_Tables_number   1
_chemical_formula_structural   HoSbO4
_chemical_formula_sum   'Ho4 Sb4 O16'
_cell_volume   308.72713513
_cell_formula_units_Z   4
loop_
 _symmetry_equiv_pos_site_id
 _symmetry_equiv_pos_as_xyz
  1  'x, y, z'
loop_
 _atom_site_type_symbol
 _atom_site_label
 _atom_site_symmetry_multiplicity
 _atom_site_fract_x
 _atom_site_fract_y
 _atom_site_fract_z
 _atom_site_occupancy
  Ho  Ho0  1  0.72651500  0.88283400  0.35110900  1
  Ho  Ho1  1  0.27348500  0.11716600  0.64889100  1
  Ho  Ho2  1  0.77348500  0.38283400  0.35110900  1
  Ho  Ho3  1  0.22651500  0.61716600  0.64889100  1
  Sb  Sb4  1  0.76478600  0.30787400  0.83912900  1
  Sb  Sb5  1  0.23521400  0.69212600  0.16087100  1
  Sb  Sb6  1  0.26478600  0.19212600  0.16087100  1
  Sb  Sb7  1  0.73521400  0.80787400  0.83912900  1
  O  O8  1  0.90851000  0.80730600  0.06991400  1
  O  O9  1  0.09149000  0.19269400  0.93008600  1
  O  O10  1  0.38354700  0.93856900  0.17399100  1
  O  O11  1  0.61645300  0.06143100  0.82600900  1
  O  O12  1  0.11645300  0.43856900  0.17399100  1
  O  O13  1  0.88354700  0.56143100  0.82600900  1
  O  O14  1  0.59149000  0.30730600  0.06991400  1
  O  O15  1  0.40851000  0.69269400  0.93008600  1
  O  O16  1  0.96516300  0.32109000  0.61377800  1
  O  O17  1  0.03483700  0.67891000  0.38622200  1
  O  O18  1  0.46516300  0.17891000  0.38622200  1
  O  O19  1  0.53483700  0.82109000  0.61377800  1
  O  O20  1  0.52168200  0.61702700  0.31450200  1
  O  O21  1  0.47831800  0.38297300  0.68549800  1
  O  O22  1  0.97831800  0.11702700  0.31450200  1
  O  O23  1  0.02168200  0.88297300  0.68549800  1
