# generated using pymatgen
data_Dy3SOF5
_symmetry_space_group_name_H-M   'P 1'
_cell_length_a   3.67054500
_cell_length_b   9.39001100
_cell_length_c   9.45100845
_cell_angle_alpha   60.45140609
_cell_angle_beta   90.00000000
_cell_angle_gamma   90.00000000
_symmetry_Int_Tables_number   1
_chemical_formula_structural   Dy3SOF5
_chemical_formula_sum   'Dy6 S2 O2 F10'
_cell_volume   283.37594464
_cell_formula_units_Z   2
loop_
 _symmetry_equiv_pos_site_id
 _symmetry_equiv_pos_as_xyz
  1  'x, y, z'
loop_
 _atom_site_type_symbol
 _atom_site_label
 _atom_site_symmetry_multiplicity
 _atom_site_fract_x
 _atom_site_fract_y
 _atom_site_fract_z
 _atom_site_occupancy
  Dy  Dy0  1  0.00000000  0.58258100  0.13408900  1
  Dy  Dy1  1  0.00000000  0.13265700  0.27105800  1
  Dy  Dy2  1  0.00000000  0.29898100  0.58558400  1
  Dy  Dy3  1  0.50000000  0.40488300  0.89681600  1
  Dy  Dy4  1  0.50000000  0.87640600  0.71497000  1
  Dy  Dy5  1  0.50000000  0.70372500  0.40243900  1
  S  S6  1  0.00000000  0.67100600  0.66715400  1
  S  S7  1  0.50000000  0.32630100  0.33872000  1
  O  O8  1  0.00000000  0.56388600  0.38734200  1
  O  O9  1  0.00000000  0.38402200  0.05213100  1
  F  F10  1  0.00000000  0.84072000  0.88007700  1
  F  F11  1  0.00000000  0.88790500  0.27310000  1
  F  F12  1  0.00000000  0.27535400  0.83723500  1
  F  F13  1  0.50000000  0.14476300  0.11706800  1
  F  F14  1  0.50000000  0.12156400  0.71432600  1
  F  F15  1  0.50000000  0.72811900  0.14912400  1
  F  F16  1  0.00000000  0.04768400  0.56689100  1
  F  F17  1  0.50000000  0.43098800  0.62601000  1
  F  F18  1  0.50000000  0.62217600  0.95295800  1
  F  F19  1  0.50000000  0.95628100  0.43291000  1
