# generated using pymatgen
data_MgCrN2
_symmetry_space_group_name_H-M   'P 1'
_cell_length_a   5.65907054
_cell_length_b   6.54996541
_cell_length_c   5.14642912
_cell_angle_alpha   90.00000000
_cell_angle_beta   90.00000000
_cell_angle_gamma   90.00000000
_symmetry_Int_Tables_number   1
_chemical_formula_structural   MgCrN2
_chemical_formula_sum   'Mg4 Cr4 N8'
_cell_volume   190.76122810
_cell_formula_units_Z   4
loop_
 _symmetry_equiv_pos_site_id
 _symmetry_equiv_pos_as_xyz
  1  'x, y, z'
loop_
 _atom_site_type_symbol
 _atom_site_label
 _atom_site_symmetry_multiplicity
 _atom_site_fract_x
 _atom_site_fract_y
 _atom_site_fract_z
 _atom_site_occupancy
  Mg  Mg0  1  0.59219430  0.87853556  0.99559954  1
  Mg  Mg1  1  0.40780570  0.12146444  0.49559954  1
  Mg  Mg2  1  0.90780570  0.37853556  0.49559954  1
  Mg  Mg3  1  0.09219430  0.62146444  0.99559954  1
  Cr  Cr4  1  0.57429518  0.37187313  0.00338048  1
  Cr  Cr5  1  0.42570482  0.62812687  0.50338048  1
  Cr  Cr6  1  0.92570482  0.87187313  0.50338048  1
  Cr  Cr7  1  0.07429518  0.12812687  0.00338048  1
  N  N8  1  0.55974512  0.39454136  0.36242363  1
  N  N9  1  0.44025488  0.60545864  0.86242363  1
  N  N10  1  0.94025488  0.89454136  0.86242363  1
  N  N11  1  0.05974512  0.10545864  0.36242363  1
  N  N12  1  0.60580289  0.85587528  0.40859536  1
  N  N13  1  0.39419711  0.14412472  0.90859536  1
  N  N14  1  0.89419711  0.35587528  0.90859536  1
  N  N15  1  0.10580289  0.64412472  0.40859536  1
