# generated using pymatgen
data_KLaTiO4
_symmetry_space_group_name_H-M   'P 1'
_cell_length_a   5.44867900
_cell_length_b   5.46568800
_cell_length_c   13.61461200
_cell_angle_alpha   90.00000000
_cell_angle_beta   90.00000000
_cell_angle_gamma   90.00000000
_symmetry_Int_Tables_number   1
_chemical_formula_structural   KLaTiO4
_chemical_formula_sum   'K4 La4 Ti4 O16'
_cell_volume   405.45375694
_cell_formula_units_Z   4
loop_
 _symmetry_equiv_pos_site_id
 _symmetry_equiv_pos_as_xyz
  1  'x, y, z'
loop_
 _atom_site_type_symbol
 _atom_site_label
 _atom_site_symmetry_multiplicity
 _atom_site_fract_x
 _atom_site_fract_y
 _atom_site_fract_z
 _atom_site_occupancy
  K  K0  1  0.75000000  0.99380900  0.59082600  1
  K  K1  1  0.25000000  0.00619100  0.40917400  1
  K  K2  1  0.75000000  0.49380900  0.40917400  1
  K  K3  1  0.25000000  0.50619100  0.59082600  1
  La  La4  1  0.75000000  0.49002800  0.10492100  1
  La  La5  1  0.25000000  0.50997200  0.89507900  1
  La  La6  1  0.75000000  0.99002800  0.89507900  1
  La  La7  1  0.25000000  0.00997200  0.10492100  1
  Ti  Ti8  1  0.75000000  0.99785600  0.26003000  1
  Ti  Ti9  1  0.25000000  0.00214400  0.73997000  1
  Ti  Ti10  1  0.75000000  0.49785600  0.73997000  1
  Ti  Ti11  1  0.25000000  0.50214400  0.26003000  1
  O  O12  1  0.75000000  0.03097400  0.06655600  1
  O  O13  1  0.25000000  0.96902600  0.93344400  1
  O  O14  1  0.75000000  0.53097400  0.93344400  1
  O  O15  1  0.25000000  0.46902600  0.06655600  1
  O  O16  1  0.50000000  0.25000000  0.23213500  1
  O  O17  1  0.50000000  0.75000000  0.76786500  1
  O  O18  1  0.00000000  0.75000000  0.76786500  1
  O  O19  1  0.00000000  0.25000000  0.23213500  1
  O  O20  1  0.75000000  0.49107400  0.61082300  1
  O  O21  1  0.25000000  0.50892600  0.38917700  1
  O  O22  1  0.75000000  0.99107400  0.38917700  1
  O  O23  1  0.25000000  0.00892600  0.61082300  1
  O  O24  1  0.50000000  0.25000000  0.77588000  1
  O  O25  1  0.50000000  0.75000000  0.22412000  1
  O  O26  1  0.00000000  0.75000000  0.22412000  1
  O  O27  1  0.00000000  0.25000000  0.77588000  1
