# generated using pymatgen
data_U6Al43Cr4
_symmetry_space_group_name_H-M   'P 1'
_cell_length_a   10.91051238
_cell_length_b   10.91088185
_cell_length_c   17.29772900
_cell_angle_alpha   90.00000000
_cell_angle_beta   90.00000000
_cell_angle_gamma   119.99887891
_symmetry_Int_Tables_number   1
_chemical_formula_structural   U6Al43Cr4
_chemical_formula_sum   'U12 Al86 Cr8'
_cell_volume   1783.32141920
_cell_formula_units_Z   2
loop_
 _symmetry_equiv_pos_site_id
 _symmetry_equiv_pos_as_xyz
  1  'x, y, z'
loop_
 _atom_site_type_symbol
 _atom_site_label
 _atom_site_symmetry_multiplicity
 _atom_site_fract_x
 _atom_site_fract_y
 _atom_site_fract_z
 _atom_site_occupancy
  U  U0  1  0.52274500  0.00000000  0.58616900  1
  U  U1  1  0.47730100  0.47732100  0.58609600  1
  U  U2  1  0.99998000  0.52267900  0.58609600  1
  U  U3  1  0.47725500  0.00000000  0.41383100  1
  U  U4  1  0.52269900  0.52267900  0.41390400  1
  U  U5  1  0.00002000  0.47732100  0.41390400  1
  U  U6  1  0.47725500  0.00000000  0.08616900  1
  U  U7  1  0.52269900  0.52267900  0.08609600  1
  U  U8  1  0.00002000  0.47732100  0.08609600  1
  U  U9  1  0.52274500  0.00000000  0.91383100  1
  U  U10  1  0.47730100  0.47732100  0.91390400  1
  U  U11  1  0.99998000  0.52267900  0.91390400  1
  Al  Al12  1  0.16129900  0.39276900  0.66486700  1
  Al  Al13  1  0.23142100  0.83869300  0.66489000  1
  Al  Al14  1  0.60720100  0.76835900  0.66482600  1
  Al  Al15  1  0.76853000  0.60723100  0.66486700  1
  Al  Al16  1  0.39272800  0.16130700  0.66489000  1
  Al  Al17  1  0.83884200  0.23164100  0.66482600  1
  Al  Al18  1  0.83870100  0.60723100  0.33513300  1
  Al  Al19  1  0.76857900  0.16130700  0.33511000  1
  Al  Al20  1  0.39279900  0.23164100  0.33517400  1
  Al  Al21  1  0.23147000  0.39276900  0.33513300  1
  Al  Al22  1  0.60727200  0.83869300  0.33511000  1
  Al  Al23  1  0.16115800  0.76835900  0.33517400  1
  Al  Al24  1  0.83870100  0.60723100  0.16486700  1
  Al  Al25  1  0.76857900  0.16130700  0.16489000  1
  Al  Al26  1  0.39279900  0.23164100  0.16482600  1
  Al  Al27  1  0.23147000  0.39276900  0.16486700  1
  Al  Al28  1  0.60727200  0.83869300  0.16489000  1
  Al  Al29  1  0.16115800  0.76835900  0.16482600  1
  Al  Al30  1  0.16129900  0.39276900  0.83513300  1
  Al  Al31  1  0.23142100  0.83869300  0.83511000  1
  Al  Al32  1  0.60720100  0.76835900  0.83517400  1
  Al  Al33  1  0.76853000  0.60723100  0.83513300  1
  Al  Al34  1  0.39272800  0.16130700  0.83511000  1
  Al  Al35  1  0.83884200  0.23164100  0.83517400  1
  Al  Al36  1  0.15781500  0.00000000  0.11521900  1
  Al  Al37  1  0.84202700  0.84202400  0.11528900  1
  Al  Al38  1  0.00000200  0.15797600  0.11528900  1
  Al  Al39  1  0.84218500  0.00000000  0.88478100  1
  Al  Al40  1  0.15797300  0.15797600  0.88471100  1
  Al  Al41  1  0.99999800  0.84202400  0.88471100  1
  Al  Al42  1  0.84218500  0.00000000  0.61521900  1
  Al  Al43  1  0.15797300  0.15797600  0.61528900  1
  Al  Al44  1  0.99999800  0.84202400  0.61528900  1
  Al  Al45  1  0.15781500  0.00000000  0.38478100  1
  Al  Al46  1  0.84202700  0.84202400  0.38471100  1
  Al  Al47  1  0.00000200  0.15797600  0.38471100  1
  Al  Al48  1  0.25092400  0.00000000  0.52961400  1
  Al  Al49  1  0.74902700  0.74901700  0.52958300  1
  Al  Al50  1  0.00001000  0.25098300  0.52958300  1
  Al  Al51  1  0.74907600  0.00000000  0.47038600  1
  Al  Al52  1  0.25097300  0.25098300  0.47041700  1
  Al  Al53  1  0.99999000  0.74901700  0.47041700  1
  Al  Al54  1  0.74907600  0.00000000  0.02961400  1
  Al  Al55  1  0.25097300  0.25098300  0.02958300  1
  Al  Al56  1  0.99999000  0.74901700  0.02958300  1
  Al  Al57  1  0.25092400  0.00000000  0.97038600  1
  Al  Al58  1  0.74902700  0.74901700  0.97041700  1
  Al  Al59  1  0.00001000  0.25098300  0.97041700  1
  Al  Al60  1  0.13946900  0.59388000  0.75000000  1
  Al  Al61  1  0.45413800  0.86035900  0.75000000  1
  Al  Al62  1  0.40609000  0.54557400  0.75000000  1
  Al  Al63  1  0.54558900  0.40612000  0.75000000  1
  Al  Al64  1  0.59377900  0.13964100  0.75000000  1
  Al  Al65  1  0.86051600  0.45442600  0.75000000  1
  Al  Al66  1  0.86053100  0.40612000  0.25000000  1
  Al  Al67  1  0.54586200  0.13964100  0.25000000  1
  Al  Al68  1  0.59391000  0.45442600  0.25000000  1
  Al  Al69  1  0.45441100  0.59388000  0.25000000  1
  Al  Al70  1  0.40622100  0.86035900  0.25000000  1
  Al  Al71  1  0.13948400  0.54557400  0.25000000  1
  Al  Al72  1  0.24653100  0.49306100  0.50000000  1
  Al  Al73  1  0.24648400  0.75340500  0.50001000  1
  Al  Al74  1  0.50692100  0.75340500  0.49999000  1
  Al  Al75  1  0.75347000  0.50693900  0.50000000  1
  Al  Al76  1  0.49307900  0.24659500  0.50001000  1
  Al  Al77  1  0.75351600  0.24659500  0.49999000  1
  Al  Al78  1  0.75347000  0.50693900  0.00000000  1
  Al  Al79  1  0.75351600  0.24659500  0.00001000  1
  Al  Al80  1  0.49307900  0.24659500  0.99999000  1
  Al  Al81  1  0.24653100  0.49306100  0.00000000  1
  Al  Al82  1  0.50692100  0.75340500  0.00001000  1
  Al  Al83  1  0.24648400  0.75340500  0.99999000  1
  Al  Al84  1  0.33328600  0.66661800  0.62862600  1
  Al  Al85  1  0.66666800  0.33338200  0.62862600  1
  Al  Al86  1  0.66671400  0.33338200  0.37137400  1
  Al  Al87  1  0.33333200  0.66661800  0.37137400  1
  Al  Al88  1  0.66671400  0.33338200  0.12862600  1
  Al  Al89  1  0.33333200  0.66661800  0.12862600  1
  Al  Al90  1  0.33328600  0.66661800  0.87137400  1
  Al  Al91  1  0.66666800  0.33338200  0.87137400  1
  Al  Al92  1  0.14675600  0.00000000  0.75000000  1
  Al  Al93  1  0.85335200  0.85317900  0.75000000  1
  Al  Al94  1  0.00017300  0.14682100  0.75000000  1
  Al  Al95  1  0.85324400  0.00000000  0.25000000  1
  Al  Al96  1  0.14664800  0.14682100  0.25000000  1
  Al  Al97  1  0.99982700  0.85317900  0.25000000  1
  Cr  Cr98  1  0.73394400  0.00000000  0.75000000  1
  Cr  Cr99  1  0.26586200  0.26586800  0.75000000  1
  Cr  Cr100  1  0.99999400  0.73413200  0.75000000  1
  Cr  Cr101  1  0.26605600  0.00000000  0.25000000  1
  Cr  Cr102  1  0.73413800  0.73413200  0.25000000  1
  Cr  Cr103  1  0.00000600  0.26586800  0.25000000  1
  Cr  Cr104  1  0.00000000  0.00000000  0.50000000  1
  Cr  Cr105  1  0.00000000  0.00000000  0.00000000  1
