# generated using pymatgen
data_Sn2H12Cl6O7
_symmetry_space_group_name_H-M   'P 1'
_cell_length_a   7.33988835
_cell_length_b   7.33988835
_cell_length_c   17.44746385
_cell_angle_alpha   85.81397656
_cell_angle_beta   85.81397656
_cell_angle_gamma   63.17397232
_symmetry_Int_Tables_number   1
_chemical_formula_structural   Sn2H12Cl6O7
_chemical_formula_sum   'Sn4 H24 Cl12 O14'
_cell_volume   835.72063928
_cell_formula_units_Z   2
loop_
 _symmetry_equiv_pos_site_id
 _symmetry_equiv_pos_as_xyz
  1  'x, y, z'
loop_
 _atom_site_type_symbol
 _atom_site_label
 _atom_site_symmetry_multiplicity
 _atom_site_fract_x
 _atom_site_fract_y
 _atom_site_fract_z
 _atom_site_occupancy
  Sn  Sn0  1  0.08020400  0.36852300  0.91834500  1
  Sn  Sn1  1  0.63147700  0.91979600  0.58165500  1
  Sn  Sn2  1  0.91979600  0.63147700  0.08165500  1
  Sn  Sn3  1  0.36852300  0.08020400  0.41834500  1
  H  H4  1  0.15823400  0.22230300  0.06865400  1
  H  H5  1  0.77769700  0.84176600  0.43134600  1
  H  H6  1  0.84176600  0.77769700  0.93134600  1
  H  H7  1  0.22230300  0.15823400  0.56865400  1
  H  H8  1  0.76543300  0.31576600  0.00376800  1
  H  H9  1  0.68423400  0.23456700  0.49623200  1
  H  H10  1  0.23456700  0.68423400  0.99623200  1
  H  H11  1  0.31576600  0.76543300  0.50376800  1
  H  H12  1  0.81841500  0.17037900  0.92809400  1
  H  H13  1  0.82962100  0.18158500  0.57190600  1
  H  H14  1  0.18158500  0.82962100  0.07190600  1
  H  H15  1  0.17037900  0.81841500  0.42809400  1
  H  H16  1  0.89697300  0.97279900  0.83050100  1
  H  H17  1  0.02720100  0.10302700  0.66949900  1
  H  H18  1  0.10302700  0.02720100  0.16949900  1
  H  H19  1  0.97279900  0.89697300  0.33050100  1
  H  H20  1  0.66390200  0.05833600  0.85691300  1
  H  H21  1  0.94166400  0.33609800  0.64308700  1
  H  H22  1  0.33609800  0.94166400  0.14308700  1
  H  H23  1  0.05833600  0.66390200  0.35691300  1
  H  H24  1  0.21280500  0.89410900  0.77000000  1
  H  H25  1  0.10589100  0.78719500  0.73000000  1
  H  H26  1  0.78719500  0.10589100  0.23000000  1
  H  H27  1  0.89410900  0.21280500  0.27000000  1
  Cl  Cl28  1  0.33471000  0.49698100  0.89060800  1
  Cl  Cl29  1  0.50301900  0.66529000  0.60939200  1
  Cl  Cl30  1  0.66529000  0.50301900  0.10939200  1
  Cl  Cl31  1  0.49698100  0.33471000  0.39060800  1
  Cl  Cl32  1  0.92543100  0.46146400  0.79631900  1
  Cl  Cl33  1  0.53853600  0.07456900  0.70368100  1
  Cl  Cl34  1  0.07456900  0.53853600  0.20368100  1
  Cl  Cl35  1  0.46146400  0.92543100  0.29631900  1
  Cl  Cl36  1  0.31663000  0.01573600  0.90015100  1
  Cl  Cl37  1  0.98426400  0.68337000  0.59984900  1
  Cl  Cl38  1  0.68337000  0.98426400  0.09984900  1
  Cl  Cl39  1  0.01573600  0.31663000  0.40015100  1
  O  O40  1  0.13420500  0.34920100  0.03728100  1
  O  O41  1  0.65079900  0.86579500  0.46271900  1
  O  O42  1  0.86579500  0.65079900  0.96271900  1
  O  O43  1  0.34920100  0.13420500  0.53728100  1
  O  O44  1  0.85904100  0.25678500  0.95903800  1
  O  O45  1  0.74321500  0.14095900  0.54096200  1
  O  O46  1  0.14095900  0.74321500  0.04096200  1
  O  O47  1  0.25678500  0.85904100  0.45903800  1
  O  O48  1  0.80105300  0.00402800  0.87646300  1
  O  O49  1  0.99597200  0.19894700  0.62353700  1
  O  O50  1  0.19894700  0.99597200  0.12353700  1
  O  O51  1  0.00402800  0.80105300  0.37646300  1
  O  O52  1  0.08264400  0.91735600  0.75000000  1
  O  O53  1  0.91735600  0.08264400  0.25000000  1
