# generated using pymatgen
data_Ce(Cu2P)2
_symmetry_space_group_name_H-M   'P 1'
_cell_length_a   3.84524606
_cell_length_b   10.91555189
_cell_length_c   14.71731811
_cell_angle_alpha   90.00000000
_cell_angle_beta   90.00000000
_cell_angle_gamma   90.00000000
_symmetry_Int_Tables_number   1
_chemical_formula_structural   Ce(Cu2P)2
_chemical_formula_sum   'Ce6 Cu24 P12'
_cell_volume   617.72974133
_cell_formula_units_Z   6
loop_
 _symmetry_equiv_pos_site_id
 _symmetry_equiv_pos_as_xyz
  1  'x, y, z'
loop_
 _atom_site_type_symbol
 _atom_site_label
 _atom_site_symmetry_multiplicity
 _atom_site_fract_x
 _atom_site_fract_y
 _atom_site_fract_z
 _atom_site_occupancy
  Ce  Ce0  1  0.00000000  0.12203167  0.72701307  1
  Ce  Ce1  1  -0.00000000  0.87796833  0.27298693  1
  Ce  Ce2  1  0.50000000  0.37796833  0.22701307  1
  Ce  Ce3  1  0.50000000  0.62203167  0.77298693  1
  Ce  Ce4  1  0.00000000  -0.00000000  -0.00000000  1
  Ce  Ce5  1  0.50000000  0.50000000  0.50000000  1
  Cu  Cu6  1  -0.00000000  0.07109741  0.43818356  1
  Cu  Cu7  1  -0.00000000  0.92890259  0.56181644  1
  Cu  Cu8  1  0.50000000  0.42890259  0.93818356  1
  Cu  Cu9  1  0.50000000  0.57109741  0.06181644  1
  Cu  Cu10  1  -0.00000000  0.39717460  0.05336076  1
  Cu  Cu11  1  -0.00000000  0.60282540  0.94663924  1
  Cu  Cu12  1  0.50000000  0.10282540  0.55336076  1
  Cu  Cu13  1  0.50000000  0.89717460  0.44663924  1
  Cu  Cu14  1  -0.00000000  0.57785330  0.33006787  1
  Cu  Cu15  1  0.00000000  0.42214670  0.66993213  1
  Cu  Cu16  1  0.50000000  0.92214670  0.83006787  1
  Cu  Cu17  1  0.50000000  0.07785330  0.16993213  1
  Cu  Cu18  1  0.00000000  0.26570745  0.53551037  1
  Cu  Cu19  1  0.00000000  0.73429255  0.46448963  1
  Cu  Cu20  1  0.50000000  0.23429255  0.03551037  1
  Cu  Cu21  1  0.50000000  0.76570745  0.96448963  1
  Cu  Cu22  1  -0.00000000  0.74364109  0.08863381  1
  Cu  Cu23  1  0.00000000  0.25635891  0.91136619  1
  Cu  Cu24  1  0.50000000  0.75635891  0.58863381  1
  Cu  Cu25  1  0.50000000  0.24364109  0.41136619  1
  Cu  Cu26  1  -0.00000000  0.17442110  0.28729482  1
  Cu  Cu27  1  -0.00000000  0.82557890  0.71270518  1
  Cu  Cu28  1  0.50000000  0.32557890  0.78729482  1
  Cu  Cu29  1  0.50000000  0.67442110  0.21270518  1
  P  P30  1  0.00000000  0.37155170  0.38355937  1
  P  P31  1  -0.00000000  0.62844830  0.61644063  1
  P  P32  1  0.50000000  0.12844830  0.88355937  1
  P  P33  1  0.50000000  0.87155170  0.11644063  1
  P  P34  1  -0.00000000  0.55601406  0.16461941  1
  P  P35  1  0.00000000  0.44398594  0.83538059  1
  P  P36  1  0.50000000  0.94398594  0.66461941  1
  P  P37  1  0.50000000  0.05601406  0.33538059  1
  P  P38  1  0.00000000  0.20538516  0.13119086  1
  P  P39  1  -0.00000000  0.79461484  0.86880914  1
  P  P40  1  0.50000000  0.29461484  0.63119086  1
  P  P41  1  0.50000000  0.70538516  0.36880914  1
