# generated using pymatgen
data_DyF3
_symmetry_space_group_name_H-M   'P 1'
_cell_length_a   6.83719650
_cell_length_b   6.83719650
_cell_length_c   7.02250400
_cell_angle_alpha   90.00000000
_cell_angle_beta   90.00000000
_cell_angle_gamma   120.00000480
_symmetry_Int_Tables_number   1
_chemical_formula_structural   DyF3
_chemical_formula_sum   'Dy6 F18'
_cell_volume   284.30122354
_cell_formula_units_Z   6
loop_
 _symmetry_equiv_pos_site_id
 _symmetry_equiv_pos_as_xyz
  1  'x, y, z'
loop_
 _atom_site_type_symbol
 _atom_site_label
 _atom_site_symmetry_multiplicity
 _atom_site_fract_x
 _atom_site_fract_y
 _atom_site_fract_z
 _atom_site_occupancy
  Dy  Dy0  1  0.34536900  0.00000000  0.75000000  1
  Dy  Dy1  1  0.65463100  0.00000000  0.25000000  1
  Dy  Dy2  1  0.00000000  0.34536900  0.75000000  1
  Dy  Dy3  1  0.00000000  0.65463100  0.25000000  1
  Dy  Dy4  1  0.65463100  0.65463100  0.75000000  1
  Dy  Dy5  1  0.34536900  0.34536900  0.25000000  1
  F  F6  1  0.00000000  0.00000000  0.75000000  1
  F  F7  1  0.00000000  0.00000000  0.25000000  1
  F  F8  1  0.33333300  0.66666700  0.68445800  1
  F  F9  1  0.66666700  0.33333300  0.31554200  1
  F  F10  1  0.66666700  0.33333300  0.81554200  1
  F  F11  1  0.33333300  0.66666700  0.18445800  1
  F  F12  1  0.37381000  0.30711400  0.57858300  1
  F  F13  1  0.62619000  0.69288600  0.42141700  1
  F  F14  1  0.69288600  0.06669600  0.57858300  1
  F  F15  1  0.30711400  0.37381000  0.92141700  1
  F  F16  1  0.30711400  0.93330400  0.42141700  1
  F  F17  1  0.69288600  0.62619000  0.07858300  1
  F  F18  1  0.93330400  0.62619000  0.57858300  1
  F  F19  1  0.06669600  0.69288600  0.92141700  1
  F  F20  1  0.06669600  0.37381000  0.42141700  1
  F  F21  1  0.93330400  0.30711400  0.07858300  1
  F  F22  1  0.62619000  0.93330400  0.92141700  1
  F  F23  1  0.37381000  0.06669600  0.07858300  1
