# generated using pymatgen
data_Rb2TeSe4
_symmetry_space_group_name_H-M   'P 1'
_cell_length_a   7.15931110
_cell_length_b   7.15931110
_cell_length_c   5.41166588
_cell_angle_alpha   69.85117355
_cell_angle_beta   69.85117355
_cell_angle_gamma   76.06616990
_symmetry_Int_Tables_number   1
_chemical_formula_structural   Rb2TeSe4
_chemical_formula_sum   'Rb2 Te1 Se4'
_cell_volume   242.10793968
_cell_formula_units_Z   1
loop_
 _symmetry_equiv_pos_site_id
 _symmetry_equiv_pos_as_xyz
  1  'x, y, z'
loop_
 _atom_site_type_symbol
 _atom_site_label
 _atom_site_symmetry_multiplicity
 _atom_site_fract_x
 _atom_site_fract_y
 _atom_site_fract_z
 _atom_site_occupancy
  Rb  Rb0  1  0.32064100  0.32064100  0.34403800  1
  Rb  Rb1  1  0.67935900  0.67935900  0.65596200  1
  Te  Te2  1  0.00000000  0.00000000  0.00000000  1
  Se  Se3  1  0.84796700  0.31221300  0.26309500  1
  Se  Se4  1  0.31221300  0.84796700  0.26309500  1
  Se  Se5  1  0.15203300  0.68778700  0.73690500  1
  Se  Se6  1  0.68778700  0.15203300  0.73690500  1
