# generated using pymatgen
data_Sr3ScNiO6
_symmetry_space_group_name_H-M   'P 1'
_cell_length_a   6.71227830
_cell_length_b   6.71227830
_cell_length_c   6.71227830
_cell_angle_alpha   93.23493978
_cell_angle_beta   93.23493981
_cell_angle_gamma   93.23493978
_symmetry_Int_Tables_number   1
_chemical_formula_structural   Sr3ScNiO6
_chemical_formula_sum   'Sr6 Sc2 Ni2 O12'
_cell_volume   300.91694402
_cell_formula_units_Z   2
loop_
 _symmetry_equiv_pos_site_id
 _symmetry_equiv_pos_as_xyz
  1  'x, y, z'
loop_
 _atom_site_type_symbol
 _atom_site_label
 _atom_site_symmetry_multiplicity
 _atom_site_fract_x
 _atom_site_fract_y
 _atom_site_fract_z
 _atom_site_occupancy
  O  O0  1  0.78958891  0.59522045  0.46681351  1
  O  O1  1  0.59522058  0.46681341  0.78958900  1
  O  O2  1  0.46681342  0.78958878  0.59522086  1
  O  O3  1  0.03318606  0.90477973  0.71041214  1
  O  O4  1  0.90477909  0.71041141  0.03318614  1
  O  O5  1  0.71041207  0.03318601  0.90477882  1
  O  O6  1  0.21041216  0.40477885  0.53318728  1
  O  O7  1  0.40477899  0.53318589  0.21041171  1
  O  O8  1  0.53318624  0.21041202  0.40477845  1
  O  O9  1  0.96681360  0.09522106  0.28958866  1
  O  O10  1  0.28958900  0.96681329  0.09522049  1
  O  O11  1  0.09522048  0.28958789  0.96681308  1
  Sc  Sc12  1  0.75000049  0.75000060  0.74999952  1
  Sc  Sc13  1  0.25000066  0.25000020  0.24999987  1
  Ni  Ni14  1  0.49999983  0.50000040  0.49999965  1
  Ni  Ni15  1  0.00000000  0.00000000  0.00000000  1
  Sr  Sr16  1  0.37913438  0.12086507  0.75000017  1
  Sr  Sr17  1  0.75000036  0.37913484  0.12086590  1
  Sr  Sr18  1  0.24999931  0.62086596  0.87913490  1
  Sr  Sr19  1  0.62086519  0.87913423  0.25000055  1
  Sr  Sr20  1  0.12086550  0.74999959  0.37913451  1
  Sr  Sr21  1  0.87913407  0.24999971  0.62086620  1
