# generated using pymatgen
data_Hg2As5H6O2F31
_symmetry_space_group_name_H-M   'P 1'
_cell_length_a   11.12338100
_cell_length_b   10.39813800
_cell_length_c   11.54748988
_cell_angle_alpha   69.62189976
_cell_angle_beta   90.00000000
_cell_angle_gamma   90.00000000
_symmetry_Int_Tables_number   1
_chemical_formula_structural   Hg2As5H6O2F31
_chemical_formula_sum   'Hg4 As10 H12 O4 F62'
_cell_volume   1252.02197065
_cell_formula_units_Z   2
loop_
 _symmetry_equiv_pos_site_id
 _symmetry_equiv_pos_as_xyz
  1  'x, y, z'
loop_
 _atom_site_type_symbol
 _atom_site_label
 _atom_site_symmetry_multiplicity
 _atom_site_fract_x
 _atom_site_fract_y
 _atom_site_fract_z
 _atom_site_occupancy
  Hg  Hg0  1  0.35573200  0.35518200  0.53518600  1
  Hg  Hg1  1  0.85573200  0.14481800  0.46481400  1
  Hg  Hg2  1  0.64426800  0.64481800  0.46481400  1
  Hg  Hg3  1  0.14426800  0.85518200  0.53518600  1
  As  As4  1  0.00000000  0.50000000  0.50000000  1
  As  As5  1  0.50000000  0.00000000  0.50000000  1
  As  As6  1  0.18089300  0.04819300  0.79501200  1
  As  As7  1  0.68089300  0.45180700  0.20498800  1
  As  As8  1  0.81910700  0.95180700  0.20498800  1
  As  As9  1  0.31910700  0.54819300  0.79501200  1
  As  As10  1  0.17839000  0.25800900  0.24105800  1
  As  As11  1  0.67839000  0.24199100  0.75894200  1
  As  As12  1  0.82161000  0.74199100  0.75894200  1
  As  As13  1  0.32161000  0.75800900  0.24105800  1
  H  H14  1  0.92069100  0.43941200  0.88886800  1
  H  H15  1  0.42069100  0.06058800  0.11113200  1
  H  H16  1  0.07930900  0.56058800  0.11113200  1
  H  H17  1  0.57930900  0.93941200  0.88886800  1
  H  H18  1  0.92646800  0.28767300  0.87910200  1
  H  H19  1  0.42646800  0.21232700  0.12089800  1
  H  H20  1  0.07353200  0.71232700  0.12089800  1
  H  H21  1  0.57353200  0.78767300  0.87910200  1
  H  H22  1  0.05216500  0.37076000  0.88634800  1
  H  H23  1  0.55216500  0.12924000  0.11365200  1
  H  H24  1  0.94783500  0.62924000  0.11365200  1
  H  H25  1  0.44783500  0.87076000  0.88634800  1
  O  O26  1  0.96800400  0.35024400  0.91579900  1
  O  O27  1  0.46800400  0.14975600  0.08420100  1
  O  O28  1  0.03199600  0.64975600  0.08420100  1
  O  O29  1  0.53199600  0.85024400  0.91579900  1
  F  F30  1  0.50000000  0.50000000  0.50000000  1
  F  F31  1  0.00000000  0.00000000  0.50000000  1
  F  F32  1  0.15336900  0.45110400  0.53084000  1
  F  F33  1  0.65336900  0.04889600  0.46916000  1
  F  F34  1  0.84663100  0.54889600  0.46916000  1
  F  F35  1  0.34663100  0.95110400  0.53084000  1
  F  F36  1  0.96139400  0.32621500  0.51985300  1
  F  F37  1  0.46139400  0.17378500  0.48014700  1
  F  F38  1  0.03860600  0.67378500  0.48014700  1
  F  F39  1  0.53860600  0.82621500  0.51985300  1
  F  F40  1  0.97810000  0.46503500  0.65779400  1
  F  F41  1  0.47810000  0.03496500  0.34220600  1
  F  F42  1  0.02190000  0.53496500  0.34220600  1
  F  F43  1  0.52190000  0.96503500  0.65779400  1
  F  F44  1  0.24965300  0.16754200  0.64973300  1
  F  F45  1  0.74965300  0.33245800  0.35026700  1
  F  F46  1  0.75034700  0.83245800  0.35026700  1
  F  F47  1  0.25034700  0.66754200  0.64973300  1
  F  F48  1  0.33092800  0.99985100  0.84771800  1
  F  F49  1  0.83092800  0.50014900  0.15228200  1
  F  F50  1  0.66907200  0.00014900  0.15228200  1
  F  F51  1  0.16907200  0.49985100  0.84771800  1
  F  F52  1  0.12108200  0.92801300  0.92800400  1
  F  F53  1  0.62108200  0.57198700  0.07199600  1
  F  F54  1  0.87891800  0.07198700  0.07199600  1
  F  F55  1  0.37891800  0.42801300  0.92800400  1
  F  F56  1  0.04013800  0.10180500  0.72854600  1
  F  F57  1  0.54013800  0.39819500  0.27145400  1
  F  F58  1  0.95986200  0.89819500  0.27145400  1
  F  F59  1  0.45986200  0.60180500  0.72854600  1
  F  F60  1  0.18434500  0.17899500  0.85789400  1
  F  F61  1  0.68434500  0.32100500  0.14210600  1
  F  F62  1  0.81565500  0.82100500  0.14210600  1
  F  F63  1  0.31565500  0.67899500  0.85789400  1
  F  F64  1  0.18633200  0.92370200  0.72040300  1
  F  F65  1  0.68633200  0.57629800  0.27959700  1
  F  F66  1  0.81366800  0.07629800  0.27959700  1
  F  F67  1  0.31366800  0.42370200  0.72040300  1
  F  F68  1  0.22123200  0.30114800  0.37229900  1
  F  F69  1  0.72123200  0.19885200  0.62770100  1
  F  F70  1  0.77876800  0.69885200  0.62770100  1
  F  F71  1  0.27876800  0.80114800  0.37229900  1
  F  F72  1  0.33324400  0.27283300  0.19677100  1
  F  F73  1  0.83324400  0.22716700  0.80322900  1
  F  F74  1  0.66675600  0.72716700  0.80322900  1
  F  F75  1  0.16675600  0.77283300  0.19677100  1
  F  F76  1  0.16401200  0.43828600  0.15168400  1
  F  F77  1  0.66401200  0.06171400  0.84831600  1
  F  F78  1  0.83598800  0.56171400  0.84831600  1
  F  F79  1  0.33598800  0.93828600  0.15168400  1
  F  F80  1  0.13982400  0.21772100  0.11141200  1
  F  F81  1  0.63982400  0.28227900  0.88858800  1
  F  F82  1  0.86017600  0.78227900  0.88858800  1
  F  F83  1  0.36017600  0.71772100  0.11141200  1
  F  F84  1  0.02620600  0.25529500  0.28624800  1
  F  F85  1  0.52620600  0.24470500  0.71375200  1
  F  F86  1  0.97379400  0.74470500  0.71375200  1
  F  F87  1  0.47379400  0.75529500  0.28624800  1
  F  F88  1  0.19740300  0.08252000  0.32874400  1
  F  F89  1  0.69740400  0.41748000  0.67125600  1
  F  F90  1  0.80259700  0.91748000  0.67125600  1
  F  F91  1  0.30259700  0.58252000  0.32874400  1
