# generated using pymatgen
data_Pr3Fe5O12
_symmetry_space_group_name_H-M   'P 1'
_cell_length_a   11.09762018
_cell_length_b   11.09762018
_cell_length_c   11.09762018
_cell_angle_alpha   109.47122063
_cell_angle_beta   109.47122063
_cell_angle_gamma   109.47122063
_symmetry_Int_Tables_number   1
_chemical_formula_structural   Pr3Fe5O12
_chemical_formula_sum   'Pr12 Fe20 O48'
_cell_volume   1052.12582359
_cell_formula_units_Z   4
loop_
 _symmetry_equiv_pos_site_id
 _symmetry_equiv_pos_as_xyz
  1  'x, y, z'
loop_
 _atom_site_type_symbol
 _atom_site_label
 _atom_site_symmetry_multiplicity
 _atom_site_fract_x
 _atom_site_fract_y
 _atom_site_fract_z
 _atom_site_occupancy
  Pr  Pr0  1  0.87500000  0.62500000  0.25000000  1
  Pr  Pr1  1  0.62500000  0.87500000  0.75000000  1
  Pr  Pr2  1  0.62500000  0.25000000  0.87500000  1
  Pr  Pr3  1  0.87500000  0.75000000  0.62500000  1
  Pr  Pr4  1  0.25000000  0.87500000  0.62500000  1
  Pr  Pr5  1  0.75000000  0.62500000  0.87500000  1
  Pr  Pr6  1  0.12500000  0.37500000  0.75000000  1
  Pr  Pr7  1  0.37500000  0.12500000  0.25000000  1
  Pr  Pr8  1  0.37500000  0.75000000  0.12500000  1
  Pr  Pr9  1  0.12500000  0.25000000  0.37500000  1
  Pr  Pr10  1  0.75000000  0.12500000  0.37500000  1
  Pr  Pr11  1  0.25000000  0.37500000  0.12500000  1
  Fe  Fe12  1  0.00000000  0.50000000  0.00000000  1
  Fe  Fe13  1  0.00000000  0.00000000  0.50000000  1
  Fe  Fe14  1  0.50000000  0.00000000  0.00000000  1
  Fe  Fe15  1  0.50000000  0.50000000  0.50000000  1
  Fe  Fe16  1  0.50000000  0.50000000  0.00000000  1
  Fe  Fe17  1  0.50000000  0.00000000  0.50000000  1
  Fe  Fe18  1  0.00000000  0.50000000  0.50000000  1
  Fe  Fe19  1  0.00000000  0.00000000  0.00000000  1
  Fe  Fe20  1  0.87500000  0.12500000  0.75000000  1
  Fe  Fe21  1  0.62500000  0.37500000  0.25000000  1
  Fe  Fe22  1  0.12500000  0.75000000  0.87500000  1
  Fe  Fe23  1  0.37500000  0.25000000  0.62500000  1
  Fe  Fe24  1  0.75000000  0.87500000  0.12500000  1
  Fe  Fe25  1  0.25000000  0.62500000  0.37500000  1
  Fe  Fe26  1  0.12500000  0.87500000  0.25000000  1
  Fe  Fe27  1  0.37500000  0.62500000  0.75000000  1
  Fe  Fe28  1  0.87500000  0.25000000  0.12500000  1
  Fe  Fe29  1  0.62500000  0.75000000  0.37500000  1
  Fe  Fe30  1  0.25000000  0.12500000  0.87500000  1
  Fe  Fe31  1  0.75000000  0.37500000  0.62500000  1
  O  O32  1  0.02511000  0.32153300  0.90497800  1
  O  O33  1  0.91655500  0.12013200  0.59502200  1
  O  O34  1  0.58344500  0.17846700  0.20357700  1
  O  O35  1  0.47489000  0.37986800  0.29642300  1
  O  O36  1  0.32153300  0.90497800  0.02511000  1
  O  O37  1  0.12013200  0.59502200  0.91655500  1
  O  O38  1  0.17846700  0.20357700  0.58344500  1
  O  O39  1  0.37986800  0.29642300  0.47489000  1
  O  O40  1  0.90497800  0.02511000  0.32153300  1
  O  O41  1  0.59502200  0.91655500  0.12013200  1
  O  O42  1  0.20357700  0.58344500  0.17846700  1
  O  O43  1  0.29642300  0.47489000  0.37986800  1
  O  O44  1  0.97489000  0.67846700  0.09502200  1
  O  O45  1  0.08344500  0.87986800  0.40497800  1
  O  O46  1  0.41655500  0.82153300  0.79642300  1
  O  O47  1  0.52511000  0.62013200  0.70357700  1
  O  O48  1  0.67846700  0.09502200  0.97489000  1
  O  O49  1  0.87986800  0.40497800  0.08344500  1
  O  O50  1  0.82153300  0.79642300  0.41655500  1
  O  O51  1  0.62013200  0.70357700  0.52511000  1
  O  O52  1  0.09502200  0.97489000  0.67846700  1
  O  O53  1  0.40497800  0.08344500  0.87986800  1
  O  O54  1  0.79642300  0.41655500  0.82153300  1
  O  O55  1  0.70357700  0.52511000  0.62013200  1
  O  O56  1  0.52511000  0.40497800  0.82153300  1
  O  O57  1  0.41655500  0.09502200  0.62013200  1
  O  O58  1  0.08344500  0.70357700  0.67846700  1
  O  O59  1  0.97489000  0.79642300  0.87986800  1
  O  O60  1  0.82153300  0.52511000  0.40497800  1
  O  O61  1  0.62013200  0.41655500  0.09502200  1
  O  O62  1  0.67846700  0.08344500  0.70357700  1
  O  O63  1  0.87986800  0.97489000  0.79642300  1
  O  O64  1  0.40497800  0.82153300  0.52511000  1
  O  O65  1  0.09502200  0.62013200  0.41655500  1
  O  O66  1  0.70357700  0.67846700  0.08344500  1
  O  O67  1  0.79642300  0.87986800  0.97489000  1
  O  O68  1  0.47489000  0.59502200  0.17846700  1
  O  O69  1  0.58344500  0.90497800  0.37986800  1
  O  O70  1  0.91655500  0.29642300  0.32153300  1
  O  O71  1  0.02511000  0.20357700  0.12013200  1
  O  O72  1  0.17846700  0.47489000  0.59502200  1
  O  O73  1  0.37986800  0.58344500  0.90497800  1
  O  O74  1  0.32153300  0.91655500  0.29642300  1
  O  O75  1  0.12013200  0.02511000  0.20357700  1
  O  O76  1  0.59502200  0.17846700  0.47489000  1
  O  O77  1  0.90497800  0.37986800  0.58344500  1
  O  O78  1  0.29642300  0.32153300  0.91655500  1
  O  O79  1  0.20357700  0.12013200  0.02511000  1
