# generated using pymatgen
data_Sr3Fe3N5
_symmetry_space_group_name_H-M   'P 1'
_cell_length_a   5.57322022
_cell_length_b   7.14183690
_cell_length_c   8.51904627
_cell_angle_alpha   108.64844492
_cell_angle_beta   102.78311334
_cell_angle_gamma   95.73272656
_symmetry_Int_Tables_number   1
_chemical_formula_structural   Sr3Fe3N5
_chemical_formula_sum   'Sr6 Fe6 N10'
_cell_volume   307.92936516
_cell_formula_units_Z   2
loop_
 _symmetry_equiv_pos_site_id
 _symmetry_equiv_pos_as_xyz
  1  'x, y, z'
loop_
 _atom_site_type_symbol
 _atom_site_label
 _atom_site_symmetry_multiplicity
 _atom_site_fract_x
 _atom_site_fract_y
 _atom_site_fract_z
 _atom_site_occupancy
  Sr  Sr0  1  0.81415960  0.41602853  0.61116655  1
  Sr  Sr1  1  0.18584040  0.58397147  0.38883345  1
  Sr  Sr2  1  0.66075810  0.86082783  0.87473553  1
  Sr  Sr3  1  0.33924190  0.13917217  0.12526447  1
  Sr  Sr4  1  0.66030874  0.67966578  0.21106278  1
  Sr  Sr5  1  0.33969126  0.32033422  0.78893722  1
  Fe  Fe6  1  0.91078601  0.32194308  0.97769916  1
  Fe  Fe7  1  0.08921399  0.67805692  0.02230084  1
  Fe  Fe8  1  0.67671975  0.96298126  0.57454618  1
  Fe  Fe9  1  0.32328025  0.03701874  0.42545382  1
  Fe  Fe10  1  0.09011971  0.89096761  0.70567860  1
  Fe  Fe11  1  0.90988029  0.10903239  0.29432140  1
  N  N12  1  0.91927654  0.11891911  0.78074957  1
  N  N13  1  0.08072346  0.88108089  0.21925043  1
  N  N14  1  0.79828782  0.72270642  0.53295166  1
  N  N15  1  0.20171218  0.27729358  0.46704834  1
  N  N16  1  0.76076240  0.52929692  0.91988239  1
  N  N17  1  0.23923760  0.47070308  0.08011761  1
  N  N18  1  0.35357215  0.94505091  0.61275269  1
  N  N19  1  0.64642785  0.05494909  0.38724731  1
  N  N20  1  0.16500046  0.77633274  0.86825945  1
  N  N21  1  0.83499954  0.22366726  0.13174055  1
