# generated using pymatgen
data_Dy5SbPd2
_symmetry_space_group_name_H-M   'P 1'
_cell_length_a   8.76032407
_cell_length_b   8.76032407
_cell_length_c   8.76032407
_cell_angle_alpha   127.26571130
_cell_angle_beta   127.26571130
_cell_angle_gamma   77.81760385
_symmetry_Int_Tables_number   1
_chemical_formula_structural   Dy5SbPd2
_chemical_formula_sum   'Dy10 Sb2 Pd4'
_cell_volume   412.74850385
_cell_formula_units_Z   2
loop_
 _symmetry_equiv_pos_site_id
 _symmetry_equiv_pos_as_xyz
  1  'x, y, z'
loop_
 _atom_site_type_symbol
 _atom_site_label
 _atom_site_symmetry_multiplicity
 _atom_site_fract_x
 _atom_site_fract_y
 _atom_site_fract_z
 _atom_site_occupancy
  Dy  Dy0  1  0.00000000  0.00000000  0.00000000  1
  Dy  Dy1  1  0.50000000  0.50000000  0.00000000  1
  Dy  Dy2  1  0.79919100  0.29919100  0.81386500  1
  Dy  Dy3  1  0.20080900  0.70080900  0.18613500  1
  Dy  Dy4  1  0.48532600  0.98532600  0.18613500  1
  Dy  Dy5  1  0.29919100  0.48532600  0.50000000  1
  Dy  Dy6  1  0.01467400  0.20080900  0.50000000  1
  Dy  Dy7  1  0.51467400  0.01467400  0.81386500  1
  Dy  Dy8  1  0.70080900  0.51467400  0.50000000  1
  Dy  Dy9  1  0.98532600  0.79919100  0.50000000  1
  Sb  Sb10  1  0.25000000  0.25000000  0.00000000  1
  Sb  Sb11  1  0.75000000  0.75000000  0.00000000  1
  Pd  Pd12  1  0.13663200  0.63663200  0.77326500  1
  Pd  Pd13  1  0.86336800  0.36336800  0.22673500  1
  Pd  Pd14  1  0.63663200  0.86336800  0.50000000  1
  Pd  Pd15  1  0.36336800  0.13663200  0.50000000  1
