# generated using pymatgen
data_CsHg5Cl11
_symmetry_space_group_name_H-M   'P 1'
_cell_length_a   7.21828680
_cell_length_b   9.83583047
_cell_length_c   9.83583074
_cell_angle_alpha   105.51862905
_cell_angle_beta   106.51865556
_cell_angle_gamma   106.51865380
_symmetry_Int_Tables_number   1
_chemical_formula_structural   CsHg5Cl11
_chemical_formula_sum   'Cs1 Hg5 Cl11'
_cell_volume   593.97389973
_cell_formula_units_Z   1
loop_
 _symmetry_equiv_pos_site_id
 _symmetry_equiv_pos_as_xyz
  1  'x, y, z'
loop_
 _atom_site_type_symbol
 _atom_site_label
 _atom_site_symmetry_multiplicity
 _atom_site_fract_x
 _atom_site_fract_y
 _atom_site_fract_z
 _atom_site_occupancy
  Cs  Cs0  1  0.00000000  0.00000000  -0.00000000  1
  Hg  Hg1  1  0.66072554  0.03155421  0.33887675  1
  Hg  Hg2  1  0.00000000  0.50000000  0.50000000  1
  Hg  Hg3  1  0.33927446  0.96844579  0.66112325  1
  Hg  Hg4  1  0.33927446  0.66112325  0.96844579  1
  Hg  Hg5  1  0.66072554  0.33887675  0.03155421  1
  Cl  Cl6  1  0.98012809  0.83333949  0.58550935  1
  Cl  Cl7  1  0.68644630  0.11710684  0.71068762  1
  Cl  Cl8  1  0.68644630  0.71068762  0.11710684  1
  Cl  Cl9  1  0.50000000  0.00000000  -0.00000000  1
  Cl  Cl10  1  0.31355370  0.88289316  0.28931238  1
  Cl  Cl11  1  0.98012809  0.58550935  0.83333949  1
  Cl  Cl12  1  0.36558658  0.63055612  0.63055612  1
  Cl  Cl13  1  0.63441342  0.36944388  0.36944388  1
  Cl  Cl14  1  0.01987191  0.41449065  0.16666051  1
  Cl  Cl15  1  0.31355370  0.28931238  0.88289316  1
  Cl  Cl16  1  0.01987191  0.16666051  0.41449065  1
