# generated using pymatgen
data_Y3Sb
_symmetry_space_group_name_H-M   'P 1'
_cell_length_a   12.46492500
_cell_length_b   12.46492500
_cell_length_c   6.20810800
_cell_angle_alpha   90.00000000
_cell_angle_beta   90.00000000
_cell_angle_gamma   90.00000000
_symmetry_Int_Tables_number   1
_chemical_formula_structural   Y3Sb
_chemical_formula_sum   'Y24 Sb8'
_cell_volume   964.58077786
_cell_formula_units_Z   8
loop_
 _symmetry_equiv_pos_site_id
 _symmetry_equiv_pos_as_xyz
  1  'x, y, z'
loop_
 _atom_site_type_symbol
 _atom_site_label
 _atom_site_symmetry_multiplicity
 _atom_site_fract_x
 _atom_site_fract_y
 _atom_site_fract_z
 _atom_site_occupancy
  Y  Y0  1  0.41628100  0.89061800  0.03445400  1
  Y  Y1  1  0.58371900  0.10938200  0.03445400  1
  Y  Y2  1  0.60938200  0.91628100  0.53445400  1
  Y  Y3  1  0.39061800  0.08371900  0.53445400  1
  Y  Y4  1  0.08371900  0.60938200  0.46554600  1
  Y  Y5  1  0.91628100  0.39061800  0.46554600  1
  Y  Y6  1  0.89061800  0.58371900  0.96554600  1
  Y  Y7  1  0.10938200  0.41628100  0.96554600  1
  Y  Y8  1  0.17540200  0.71511100  0.98451300  1
  Y  Y9  1  0.82459800  0.28488900  0.98451300  1
  Y  Y10  1  0.78488900  0.67540200  0.48451300  1
  Y  Y11  1  0.21511100  0.32459800  0.48451300  1
  Y  Y12  1  0.32459800  0.78488900  0.51548700  1
  Y  Y13  1  0.67540200  0.21511100  0.51548700  1
  Y  Y14  1  0.71511100  0.82459800  0.01548700  1
  Y  Y15  1  0.28488900  0.17540200  0.01548700  1
  Y  Y16  1  0.14283500  0.96928200  0.28392600  1
  Y  Y17  1  0.85716500  0.03071800  0.28392600  1
  Y  Y18  1  0.53071800  0.64283500  0.78392600  1
  Y  Y19  1  0.46928200  0.35716500  0.78392600  1
  Y  Y20  1  0.35716500  0.53071800  0.21607400  1
  Y  Y21  1  0.64283500  0.46928200  0.21607400  1
  Y  Y22  1  0.96928200  0.85716500  0.71607400  1
  Y  Y23  1  0.03071800  0.14283500  0.71607400  1
  Sb  Sb24  1  0.54234400  0.70115000  0.28966000  1
  Sb  Sb25  1  0.45765600  0.29885000  0.28966000  1
  Sb  Sb26  1  0.79885000  0.04234400  0.78966000  1
  Sb  Sb27  1  0.20115000  0.95765600  0.78966000  1
  Sb  Sb28  1  0.95765600  0.79885000  0.21034000  1
  Sb  Sb29  1  0.04234400  0.20115000  0.21034000  1
  Sb  Sb30  1  0.70115000  0.45765600  0.71034000  1
  Sb  Sb31  1  0.29885000  0.54234400  0.71034000  1
