# generated using pymatgen
data_Mn3Ge5
_symmetry_space_group_name_H-M   'P 1'
_cell_length_a   5.70424300
_cell_length_b   5.70424300
_cell_length_c   13.82889000
_cell_angle_alpha   90.00000000
_cell_angle_beta   90.00000000
_cell_angle_gamma   90.00000000
_symmetry_Int_Tables_number   1
_chemical_formula_structural   Mn3Ge5
_chemical_formula_sum   'Mn12 Ge20'
_cell_volume   449.96979124
_cell_formula_units_Z   4
loop_
 _symmetry_equiv_pos_site_id
 _symmetry_equiv_pos_as_xyz
  1  'x, y, z'
loop_
 _atom_site_type_symbol
 _atom_site_label
 _atom_site_symmetry_multiplicity
 _atom_site_fract_x
 _atom_site_fract_y
 _atom_site_fract_z
 _atom_site_occupancy
  Mn  Mn0  1  0.50000000  0.00000000  0.74984000  1
  Mn  Mn1  1  0.00000000  0.50000000  0.25016000  1
  Mn  Mn2  1  0.00000000  0.00000000  0.00000000  1
  Mn  Mn3  1  0.50000000  0.50000000  0.50000000  1
  Mn  Mn4  1  0.50000000  0.00000000  0.08697800  1
  Mn  Mn5  1  0.00000000  0.50000000  0.91302200  1
  Mn  Mn6  1  0.00000000  0.50000000  0.58691000  1
  Mn  Mn7  1  0.50000000  0.00000000  0.41309000  1
  Mn  Mn8  1  0.00000000  0.00000000  0.32784300  1
  Mn  Mn9  1  0.00000000  0.00000000  0.67215700  1
  Mn  Mn10  1  0.50000000  0.50000000  0.82784200  1
  Mn  Mn11  1  0.50000000  0.50000000  0.17215800  1
  Ge  Ge12  1  0.67113000  0.17120200  0.24997300  1
  Ge  Ge13  1  0.82879800  0.67113000  0.75002700  1
  Ge  Ge14  1  0.32887000  0.82879800  0.24997300  1
  Ge  Ge15  1  0.17120200  0.32887000  0.75002700  1
  Ge  Ge16  1  0.15995700  0.19514000  0.15085700  1
  Ge  Ge17  1  0.80486000  0.15995700  0.84914300  1
  Ge  Ge18  1  0.84004300  0.80486000  0.15085700  1
  Ge  Ge19  1  0.19514000  0.84004300  0.84914300  1
  Ge  Ge20  1  0.34018100  0.69465300  0.65084200  1
  Ge  Ge21  1  0.69465300  0.65981900  0.34915800  1
  Ge  Ge22  1  0.65981900  0.30534700  0.65084200  1
  Ge  Ge23  1  0.30534700  0.34018100  0.34915800  1
  Ge  Ge24  1  0.34327400  0.23320500  0.94971400  1
  Ge  Ge25  1  0.76679500  0.34327400  0.05028600  1
  Ge  Ge26  1  0.65672600  0.76679500  0.94971400  1
  Ge  Ge27  1  0.23320500  0.65672600  0.05028600  1
  Ge  Ge28  1  0.15703400  0.73307500  0.44976900  1
  Ge  Ge29  1  0.73307500  0.84296600  0.55023100  1
  Ge  Ge30  1  0.84296600  0.26692500  0.44976900  1
  Ge  Ge31  1  0.26692500  0.15703400  0.55023100  1
