# generated using pymatgen
data_Yb3Cu6Sn5
_symmetry_space_group_name_H-M   'P 1'
_cell_length_a   8.36355008
_cell_length_b   8.36355008
_cell_length_c   8.36355008
_cell_angle_alpha   149.57366651
_cell_angle_beta   107.46460386
_cell_angle_gamma   80.65391348
_symmetry_Int_Tables_number   1
_chemical_formula_structural   Yb3Cu6Sn5
_chemical_formula_sum   'Yb3 Cu6 Sn5'
_cell_volume   276.93262019
_cell_formula_units_Z   1
loop_
 _symmetry_equiv_pos_site_id
 _symmetry_equiv_pos_as_xyz
  1  'x, y, z'
loop_
 _atom_site_type_symbol
 _atom_site_label
 _atom_site_symmetry_multiplicity
 _atom_site_fract_x
 _atom_site_fract_y
 _atom_site_fract_z
 _atom_site_occupancy
  Yb  Yb0  1  0.00000000  0.00000000  0.00000000  1
  Yb  Yb1  1  0.68707000  0.68707000  0.00000000  1
  Yb  Yb2  1  0.31293000  0.31293000  0.00000000  1
  Cu  Cu3  1  0.30575800  0.50000000  0.80575800  1
  Cu  Cu4  1  0.69424200  0.50000000  0.19424200  1
  Cu  Cu5  1  0.39704700  0.11681700  0.28022900  1
  Cu  Cu6  1  0.83658800  0.11681700  0.71977100  1
  Cu  Cu7  1  0.16341200  0.88318300  0.28022900  1
  Cu  Cu8  1  0.60295300  0.88318300  0.71977100  1
  Sn  Sn9  1  0.32656600  0.67316600  0.65340000  1
  Sn  Sn10  1  0.50000000  0.00000000  0.50000000  1
  Sn  Sn11  1  0.67343400  0.32683400  0.34660000  1
  Sn  Sn12  1  0.98023400  0.32683400  0.65340000  1
  Sn  Sn13  1  0.01976600  0.67316600  0.34660000  1
