# generated using pymatgen
data_RbH2(IO3)3
_symmetry_space_group_name_H-M   'P 1'
_cell_length_a   8.73565197
_cell_length_b   13.27251205
_cell_length_c   25.99903580
_cell_angle_alpha   90.00000000
_cell_angle_beta   90.00000000
_cell_angle_gamma   106.83195672
_symmetry_Int_Tables_number   1
_chemical_formula_structural   RbH2(IO3)3
_chemical_formula_sum   'Rb12 H24 I36 O108'
_cell_volume   2885.28947443
_cell_formula_units_Z   12
loop_
 _symmetry_equiv_pos_site_id
 _symmetry_equiv_pos_as_xyz
  1  'x, y, z'
loop_
 _atom_site_type_symbol
 _atom_site_label
 _atom_site_symmetry_multiplicity
 _atom_site_fract_x
 _atom_site_fract_y
 _atom_site_fract_z
 _atom_site_occupancy
  Rb  Rb0  1  0.42248988  0.75199601  0.07399265  1
  Rb  Rb1  1  0.07751012  0.74800399  0.57399265  1
  Rb  Rb2  1  0.57751012  0.24800399  0.92600735  1
  Rb  Rb3  1  0.92248988  0.25199601  0.42600735  1
  Rb  Rb4  1  0.68150571  0.42999427  0.07524039  1
  Rb  Rb5  1  0.81849429  0.07000573  0.57524039  1
  Rb  Rb6  1  0.31849429  0.57000573  0.92475961  1
  Rb  Rb7  1  0.18150571  0.92999427  0.42475961  1
  Rb  Rb8  1  0.07225020  0.09861105  0.07166291  1
  Rb  Rb9  1  0.42774980  0.40138895  0.57166291  1
  Rb  Rb10  1  0.92774980  0.90138895  0.92833709  1
  Rb  Rb11  1  0.57225020  0.59861105  0.42833709  1
  H  H12  1  0.30451533  0.34012140  0.01034544  1
  H  H13  1  0.19548467  0.15987860  0.51034544  1
  H  H14  1  0.69548467  0.65987860  0.98965456  1
  H  H15  1  0.80451533  0.84012140  0.48965456  1
  H  H16  1  0.88760720  0.28037799  0.10694183  1
  H  H17  1  0.61239280  0.21962201  0.60694183  1
  H  H18  1  0.11239280  0.71962201  0.89305817  1
  H  H19  1  0.38760720  0.78037799  0.39305817  1
  H  H20  1  0.67055570  0.01627989  0.00702301  1
  H  H21  1  0.82944430  0.48372011  0.50702301  1
  H  H22  1  0.32944430  0.98372011  0.99297699  1
  H  H23  1  0.17055570  0.51627989  0.49297699  1
  H  H24  1  0.24517793  0.94498554  0.10382918  1
  H  H25  1  0.25482207  0.55501446  0.60382918  1
  H  H26  1  0.75482207  0.05501446  0.89617082  1
  H  H27  1  0.74517793  0.44498554  0.39617082  1
  H  H28  1  0.08567101  0.62328486  0.04714174  1
  H  H29  1  0.41432899  0.87671514  0.54714174  1
  H  H30  1  0.91432899  0.37671514  0.95285826  1
  H  H31  1  0.58567101  0.12328486  0.45285826  1
  H  H32  1  0.04353929  0.68804744  0.00096500  1
  H  H33  1  0.45646071  0.81195256  0.50096500  1
  H  H34  1  0.95646071  0.31195256  0.99903500  1
  H  H35  1  0.54353929  0.18804744  0.49903500  1
  I  I36  1  0.41140432  0.22981160  0.19510390  1
  I  I37  1  0.08859568  0.27018840  0.69510390  1
  I  I38  1  0.58859568  0.77018840  0.80489610  1
  I  I39  1  0.91140432  0.72981160  0.30489610  1
  I  I40  1  0.01001697  0.05033146  0.29753138  1
  I  I41  1  0.48998303  0.44966854  0.79753138  1
  I  I42  1  0.98998303  0.94966854  0.70246862  1
  I  I43  1  0.51001697  0.55033146  0.20246862  1
  I  I44  1  0.02410786  0.57898474  0.18252423  1
  I  I45  1  0.47589214  0.92101526  0.68252423  1
  I  I46  1  0.97589214  0.42101526  0.81747577  1
  I  I47  1  0.52410786  0.07898474  0.31747577  1
  I  I48  1  0.76699366  0.90439612  0.19482073  1
  I  I49  1  0.73300634  0.59560388  0.69482073  1
  I  I50  1  0.23300634  0.09560388  0.80517927  1
  I  I51  1  0.26699366  0.40439612  0.30517927  1
  I  I52  1  0.88396889  0.77019442  0.08561351  1
  I  I53  1  0.61603111  0.72980558  0.58561351  1
  I  I54  1  0.11603111  0.22980558  0.91438649  1
  I  I55  1  0.38396889  0.27019442  0.41438649  1
  I  I56  1  0.19450568  0.42268012  0.08318135  1
  I  I57  1  0.30549432  0.07731988  0.58318135  1
  I  I58  1  0.80549432  0.57731988  0.91681865  1
  I  I59  1  0.69450568  0.92268012  0.41681865  1
  I  I60  1  0.90484171  0.23213739  0.19873695  1
  I  I61  1  0.59515829  0.26786261  0.69873695  1
  I  I62  1  0.09515829  0.76786261  0.80126305  1
  I  I63  1  0.40484171  0.73213739  0.30126305  1
  I  I64  1  0.55655694  0.09259106  0.08062745  1
  I  I65  1  0.94344306  0.40740894  0.58062745  1
  I  I66  1  0.44344306  0.90740894  0.91937255  1
  I  I67  1  0.05655694  0.59259106  0.41937255  1
  I  I68  1  0.26506721  0.89659769  0.19538690  1
  I  I69  1  0.23493279  0.60340231  0.69538690  1
  I  I70  1  0.73493279  0.10340231  0.80461310  1
  I  I71  1  0.76506721  0.39659769  0.30461310  1
  O  O72  1  0.49938821  0.36339119  0.17055846  1
  O  O73  1  0.00061179  0.13660881  0.67055846  1
  O  O74  1  0.50061179  0.63660881  0.82944154  1
  O  O75  1  0.99938821  0.86339119  0.32944154  1
  O  O76  1  0.58551729  0.20134773  0.22497162  1
  O  O77  1  0.91448271  0.29865227  0.72497162  1
  O  O78  1  0.41448271  0.79865227  0.77502838  1
  O  O79  1  0.08551729  0.70134773  0.27502838  1
  O  O80  1  0.39042280  0.16288669  0.13180665  1
  O  O81  1  0.10957720  0.33711331  0.63180665  1
  O  O82  1  0.60957720  0.83711331  0.86819335  1
  O  O83  1  0.89042280  0.66288669  0.36819335  1
  O  O84  1  0.95673108  0.06572628  0.36366794  1
  O  O85  1  0.54326892  0.43427372  0.86366794  1
  O  O86  1  0.04326892  0.93427372  0.63633206  1
  O  O87  1  0.45673108  0.56572628  0.13633206  1
  O  O88  1  0.04458169  0.18711018  0.27304944  1
  O  O89  1  0.45541831  0.31288982  0.77304944  1
  O  O90  1  0.95541831  0.81288982  0.72695056  1
  O  O91  1  0.54458169  0.68711018  0.22695056  1
  O  O92  1  0.80019724  0.99701420  0.27070419  1
  O  O93  1  0.69980276  0.50298580  0.77070419  1
  O  O94  1  0.19980276  0.00298580  0.72929581  1
  O  O95  1  0.30019724  0.49701420  0.22929581  1
  O  O96  1  0.17959169  0.69476737  0.16093884  1
  O  O97  1  0.32040831  0.80523263  0.66093884  1
  O  O98  1  0.82040831  0.30523263  0.83906116  1
  O  O99  1  0.67959169  0.19476737  0.33906116  1
  O  O100  1  0.84181125  0.61233151  0.16533255  1
  O  O101  1  0.65818875  0.88766849  0.66533255  1
  O  O102  1  0.15818875  0.38766849  0.83466745  1
  O  O103  1  0.34181125  0.11233151  0.33466745  1
  O  O104  1  0.01868783  0.49524349  0.12400372  1
  O  O105  1  0.48131217  0.00475651  0.62400372  1
  O  O106  1  0.98131217  0.50475651  0.87599628  1
  O  O107  1  0.51868783  0.99524349  0.37599628  1
  O  O108  1  0.86109148  0.02926238  0.16365791  1
  O  O109  1  0.63890852  0.47073762  0.66365791  1
  O  O110  1  0.13890852  0.97073762  0.83634209  1
  O  O111  1  0.36109148  0.52926238  0.33634209  1
  O  O112  1  0.93348120  0.85670265  0.21522316  1
  O  O113  1  0.56651880  0.64329735  0.71522316  1
  O  O114  1  0.06651880  0.14329735  0.78477684  1
  O  O115  1  0.43348120  0.35670265  0.28477684  1
  O  O116  1  0.73275658  0.82453384  0.12767247  1
  O  O117  1  0.76724342  0.67546616  0.62767247  1
  O  O118  1  0.26724342  0.17546616  0.87232753  1
  O  O119  1  0.23275658  0.32453384  0.37232753  1
  O  O120  1  0.93600371  0.87456959  0.03897099  1
  O  O121  1  0.56399629  0.62543041  0.53897099  1
  O  O122  1  0.06399629  0.12543041  0.96102901  1
  O  O123  1  0.43600371  0.37456959  0.46102901  1
  O  O124  1  0.71949864  0.67552187  0.05323746  1
  O  O125  1  0.78050136  0.82447813  0.55323746  1
  O  O126  1  0.28050136  0.32447813  0.94676254  1
  O  O127  1  0.21949864  0.17552187  0.44676254  1
  O  O128  1  0.21692467  0.52686018  0.03632354  1
  O  O129  1  0.28307533  0.97313982  0.53632354  1
  O  O130  1  0.78307533  0.47313982  0.96367646  1
  O  O131  1  0.71692467  0.02686018  0.46367646  1
  O  O132  1  0.00995715  0.32553898  0.06052850  1
  O  O133  1  0.49004285  0.17446102  0.56052850  1
  O  O134  1  0.99004285  0.67446102  0.93947150  1
  O  O135  1  0.50995715  0.82553898  0.43947150  1
  O  O136  1  0.33537416  0.35388229  0.04785162  1
  O  O137  1  0.16462584  0.14611771  0.54785162  1
  O  O138  1  0.66462584  0.64611771  0.95214838  1
  O  O139  1  0.83537416  0.85388229  0.45214838  1
  O  O140  1  0.09902522  0.26026041  0.16776182  1
  O  O141  1  0.40097478  0.23973959  0.66776182  1
  O  O142  1  0.90097478  0.73973959  0.83223818  1
  O  O143  1  0.59902522  0.76026041  0.33223818  1
  O  O144  1  0.92315382  0.36100226  0.22818241  1
  O  O145  1  0.57684618  0.13899774  0.72818241  1
  O  O146  1  0.07684618  0.63899774  0.77181759  1
  O  O147  1  0.42315382  0.86100226  0.27181759  1
  O  O148  1  0.79996904  0.25028756  0.13356806  1
  O  O149  1  0.70003096  0.24971244  0.63356806  1
  O  O150  1  0.20003096  0.74971244  0.86643194  1
  O  O151  1  0.29996904  0.75028756  0.36643194  1
  O  O152  1  0.58212720  0.20107141  0.03692827  1
  O  O153  1  0.91787280  0.29892859  0.53692827  1
  O  O154  1  0.41787280  0.79892859  0.96307173  1
  O  O155  1  0.08212720  0.70107141  0.46307173  1
  O  O156  1  0.36701855  0.00201428  0.05696836  1
  O  O157  1  0.13298145  0.49798572  0.55696836  1
  O  O158  1  0.63298145  0.99798572  0.94303164  1
  O  O159  1  0.86701855  0.50201428  0.44303164  1
  O  O160  1  0.69692827  0.02424550  0.04494866  1
  O  O161  1  0.80307173  0.47575450  0.54494866  1
  O  O162  1  0.30307173  0.97575450  0.95505134  1
  O  O163  1  0.19692827  0.52424550  0.45505134  1
  O  O164  1  0.27882211  0.02225191  0.22583824  1
  O  O165  1  0.22117789  0.47774809  0.72583824  1
  O  O166  1  0.72117789  0.97774809  0.77416176  1
  O  O167  1  0.77882211  0.52225191  0.27416176  1
  O  O168  1  0.45777029  0.92063901  0.16323205  1
  O  O169  1  0.04222971  0.57936099  0.66323205  1
  O  O170  1  0.54222971  0.07936099  0.83676795  1
  O  O171  1  0.95777029  0.42063901  0.33676795  1
  O  O172  1  0.15853230  0.91519779  0.13061892  1
  O  O173  1  0.34146770  0.58480221  0.63061892  1
  O  O174  1  0.84146770  0.08480221  0.86938108  1
  O  O175  1  0.65853230  0.41519779  0.36938108  1
  O  O176  1  0.07439845  0.69307404  0.03842355  1
  O  O177  1  0.42560155  0.80692596  0.53842355  1
  O  O178  1  0.92560155  0.30692596  0.96157645  1
  O  O179  1  0.57439845  0.19307404  0.46157645  1
