# generated using pymatgen
data_Te6IrCl3
_symmetry_space_group_name_H-M   'P 1'
_cell_length_a   9.22407314
_cell_length_b   9.22407314
_cell_length_c   9.22407338
_cell_angle_alpha   107.80222125
_cell_angle_beta   107.80222125
_cell_angle_gamma   107.80221852
_symmetry_Int_Tables_number   1
_chemical_formula_structural   Te6IrCl3
_chemical_formula_sum   'Te12 Ir2 Cl6'
_cell_volume   638.76004976
_cell_formula_units_Z   2
loop_
 _symmetry_equiv_pos_site_id
 _symmetry_equiv_pos_as_xyz
  1  'x, y, z'
loop_
 _atom_site_type_symbol
 _atom_site_label
 _atom_site_symmetry_multiplicity
 _atom_site_fract_x
 _atom_site_fract_y
 _atom_site_fract_z
 _atom_site_occupancy
  Te  Te0  1  0.92404600  0.17556800  0.18736000  1
  Te  Te1  1  0.18736000  0.92404600  0.17556800  1
  Te  Te2  1  0.17556800  0.18736000  0.92404600  1
  Te  Te3  1  0.68736000  0.67556800  0.42404600  1
  Te  Te4  1  0.42404600  0.68736000  0.67556800  1
  Te  Te5  1  0.67556800  0.42404600  0.68736000  1
  Te  Te6  1  0.07595400  0.82443200  0.81264000  1
  Te  Te7  1  0.81264000  0.07595400  0.82443200  1
  Te  Te8  1  0.82443200  0.81264000  0.07595400  1
  Te  Te9  1  0.31264000  0.32443200  0.57595400  1
  Te  Te10  1  0.57595400  0.31264000  0.32443200  1
  Te  Te11  1  0.32443200  0.57595400  0.31264000  1
  Ir  Ir12  1  0.25000000  0.25000000  0.25000000  1
  Ir  Ir13  1  0.75000000  0.75000000  0.75000000  1
  Cl  Cl14  1  0.98731000  0.51269000  0.25000000  1
  Cl  Cl15  1  0.25000000  0.98731000  0.51269000  1
  Cl  Cl16  1  0.51269000  0.25000000  0.98731000  1
  Cl  Cl17  1  0.75000000  0.01269000  0.48731000  1
  Cl  Cl18  1  0.48731000  0.75000000  0.01269000  1
  Cl  Cl19  1  0.01269000  0.48731000  0.75000000  1
