# generated using pymatgen
data_SmYCo4
_symmetry_space_group_name_H-M   'P 1'
_cell_length_a   5.09021423
_cell_length_b   5.09021423
_cell_length_c   5.09021423
_cell_angle_alpha   90.00000000
_cell_angle_beta   60.00000000
_cell_angle_gamma   120.00000000
_symmetry_Int_Tables_number   1
_chemical_formula_structural   SmYCo4
_chemical_formula_sum   'Sm1 Y1 Co4'
_cell_volume   93.25952184
_cell_formula_units_Z   1
loop_
 _symmetry_equiv_pos_site_id
 _symmetry_equiv_pos_as_xyz
  1  'x, y, z'
loop_
 _atom_site_type_symbol
 _atom_site_label
 _atom_site_symmetry_multiplicity
 _atom_site_fract_x
 _atom_site_fract_y
 _atom_site_fract_z
 _atom_site_occupancy
  Sm  Sm0  1  0.50000000  0.75000000  0.75000000  1
  Y  Y1  1  0.00000000  0.00000000  0.00000000  1
  Co  Co2  1  0.74990000  0.37495000  0.87515000  1
  Co  Co3  1  0.25010000  0.37495000  0.37495000  1
  Co  Co4  1  0.25010000  0.87515000  0.37495000  1
  Co  Co5  1  0.74990000  0.37495000  0.37495000  1
