# generated using pymatgen
data_Ta9VO25
_symmetry_space_group_name_H-M   'P 1'
_cell_length_a   3.86145635
_cell_length_b   11.41886703
_cell_length_c   11.41886703
_cell_angle_alpha   88.36175802
_cell_angle_beta   80.26553429
_cell_angle_gamma   80.26553429
_symmetry_Int_Tables_number   1
_chemical_formula_structural   Ta9VO25
_chemical_formula_sum   'Ta9 V1 O25'
_cell_volume   489.10292346
_cell_formula_units_Z   1
loop_
 _symmetry_equiv_pos_site_id
 _symmetry_equiv_pos_as_xyz
  1  'x, y, z'
loop_
 _atom_site_type_symbol
 _atom_site_label
 _atom_site_symmetry_multiplicity
 _atom_site_fract_x
 _atom_site_fract_y
 _atom_site_fract_z
 _atom_site_occupancy
  O  O0  1  0.93875616  0.63035232  0.51302331  1
  O  O1  1  0.54822136  0.51302343  0.36964824  1
  O  O2  1  0.43089285  0.48697655  0.63035204  1
  O  O3  1  0.08213268  0.36964766  0.48697706  1
  O  O4  1  0.49999980  0.00000000  0.99999967  1
  O  O5  1  0.25047566  0.13985065  0.36483527  1
  O  O6  1  0.38468982  0.36483553  0.86014938  1
  O  O7  1  0.60967357  0.63516444  0.13985091  1
  O  O8  1  0.75516137  0.86014933  0.63516438  1
  O  O9  1  0.83075181  0.96072682  0.39180698  1
  O  O10  1  0.98274558  0.73460889  0.28966146  1
  O  O11  1  0.72759226  0.28966219  0.26539136  1
  O  O12  1  0.28264478  0.71033779  0.73460864  1
  O  O13  1  0.00701779  0.26539108  0.71033848  1
  O  O14  1  0.94786634  0.16746511  0.93655695  1
  O  O15  1  0.11557787  0.93655714  0.83253464  1
  O  O16  1  0.88466881  0.06344283  0.16746488  1
  O  O17  1  0.77743972  0.39180694  0.03927310  1
  O  O18  1  0.35429531  0.80745073  0.48887940  1
  O  O19  1  0.15682554  0.48887917  0.19254929  1
  O  O20  1  0.83825420  0.51112081  0.80745008  1
  O  O21  1  0.65062537  0.19254925  0.51112116  1
  O  O22  1  0.18328609  0.03927316  0.60819301  1
  O  O23  1  0.20852017  0.60819303  0.96072700  1
  O  O24  1  0.05188740  0.83253487  0.06344347  1
  V  V25  1  0.24999955  0.49999999  0.49999975  1
  Ta  Ta26  1  0.78184892  0.11757845  0.32255980  1
  Ta  Ta27  1  0.87770946  0.79649335  0.44158144  1
  Ta  Ta28  1  0.11578458  0.20350662  0.55841847  1
  Ta  Ta29  1  0.68070984  0.44158177  0.20350657  1
  Ta  Ta30  1  0.32579917  0.55841821  0.79649332  1
  Ta  Ta31  1  0.89559185  0.32255909  0.88242106  1
  Ta  Ta32  1  0.10057065  0.67744088  0.11757886  1
  Ta  Ta33  1  0.22198900  0.88242153  0.67744022  1
  Ta  Ta34  1  0.00000000  0.00000000  0.00000000  1
