# generated using pymatgen
data_Er6IrI10
_symmetry_space_group_name_H-M   'P 1'
_cell_length_a   7.68298300
_cell_length_b   9.62876757
_cell_length_c   9.66212309
_cell_angle_alpha   107.59834413
_cell_angle_beta   96.94137264
_cell_angle_gamma   104.74328086
_symmetry_Int_Tables_number   1
_chemical_formula_structural   Er6IrI10
_chemical_formula_sum   'Er6 Ir1 I10'
_cell_volume   643.54985110
_cell_formula_units_Z   1
loop_
 _symmetry_equiv_pos_site_id
 _symmetry_equiv_pos_as_xyz
  1  'x, y, z'
loop_
 _atom_site_type_symbol
 _atom_site_label
 _atom_site_symmetry_multiplicity
 _atom_site_fract_x
 _atom_site_fract_y
 _atom_site_fract_z
 _atom_site_occupancy
  Er  Er0  1  0.52589500  0.71648400  0.41473000  1
  Er  Er1  1  0.47410500  0.28351600  0.58527000  1
  Er  Er2  1  0.15083000  0.87269200  0.33372100  1
  Er  Er3  1  0.84917000  0.12730800  0.66627900  1
  Er  Er4  1  0.61181700  0.03918800  0.25922500  1
  Er  Er5  1  0.38818300  0.96081200  0.74077500  1
  Ir  Ir6  1  0.50000000  0.00000000  0.50000000  1
  I  I7  1  0.71547100  0.73831900  0.15044700  1
  I  I8  1  0.28452900  0.26168100  0.84955300  1
  I  I9  1  0.04729500  0.18384700  0.40764200  1
  I  I10  1  0.95270500  0.81615300  0.59235800  1
  I  I11  1  0.58652000  0.37310600  0.32047900  1
  I  I12  1  0.41348000  0.62689400  0.67952100  1
  I  I13  1  0.14312400  0.54422800  0.22584500  1
  I  I14  1  0.85687600  0.45577200  0.77415500  1
  I  I15  1  0.76163000  0.08899800  0.96487900  1
  I  I16  1  0.23837000  0.91100200  0.03512100  1
