# generated using pymatgen
data_CsSnSe3
_symmetry_space_group_name_H-M   'P 1'
_cell_length_a   7.21448161
_cell_length_b   8.11715917
_cell_length_c   8.11377810
_cell_angle_alpha   102.65005911
_cell_angle_beta   113.74030025
_cell_angle_gamma   106.49861517
_symmetry_Int_Tables_number   1
_chemical_formula_structural   CsSnSe3
_chemical_formula_sum   'Cs2 Sn2 Se6'
_cell_volume   385.79053443
_cell_formula_units_Z   2
loop_
 _symmetry_equiv_pos_site_id
 _symmetry_equiv_pos_as_xyz
  1  'x, y, z'
loop_
 _atom_site_type_symbol
 _atom_site_label
 _atom_site_symmetry_multiplicity
 _atom_site_fract_x
 _atom_site_fract_y
 _atom_site_fract_z
 _atom_site_occupancy
  Cs  Cs0  1  0.22233916  0.18724635  0.84960782  1
  Cs  Cs1  1  0.77766084  0.81275365  0.15039218  1
  Sn  Sn2  1  0.21905250  0.50667794  0.42726959  1
  Sn  Sn3  1  0.78094750  0.49332206  0.57273041  1
  Se  Se4  1  0.66113558  0.76230491  0.56854504  1
  Se  Se5  1  0.18973871  0.60154570  0.13073170  1
  Se  Se6  1  0.33886442  0.23769509  0.43145496  1
  Se  Se7  1  0.22450001  0.70376365  0.72785891  1
  Se  Se8  1  0.77549999  0.29623635  0.27214109  1
  Se  Se9  1  0.81026129  0.39845430  0.86926830  1
