# generated using pymatgen
data_KSi2HO5
_symmetry_space_group_name_H-M   'P 1'
_cell_length_a   8.52330872
_cell_length_b   8.52330872
_cell_length_c   9.89440036
_cell_angle_alpha   61.83890845
_cell_angle_beta   61.83890845
_cell_angle_gamma   59.61609045
_symmetry_Int_Tables_number   1
_chemical_formula_structural   KSi2HO5
_chemical_formula_sum   'K4 Si8 H4 O20'
_cell_volume   520.32922589
_cell_formula_units_Z   4
loop_
 _symmetry_equiv_pos_site_id
 _symmetry_equiv_pos_as_xyz
  1  'x, y, z'
loop_
 _atom_site_type_symbol
 _atom_site_label
 _atom_site_symmetry_multiplicity
 _atom_site_fract_x
 _atom_site_fract_y
 _atom_site_fract_z
 _atom_site_occupancy
  K  K0  1  0.00000000  0.00000000  0.00000000  1
  K  K1  1  0.00000000  0.00000000  0.50000000  1
  K  K2  1  0.68016300  0.68016300  0.98077300  1
  K  K3  1  0.31983700  0.31983700  0.01922700  1
  Si  Si4  1  0.11589600  0.48877400  0.67631400  1
  Si  Si5  1  0.48877400  0.11589600  0.67631400  1
  Si  Si6  1  0.88410400  0.51122600  0.32368600  1
  Si  Si7  1  0.51122600  0.88410400  0.32368600  1
  Si  Si8  1  0.78207100  0.40756200  0.70249700  1
  Si  Si9  1  0.40756200  0.78207100  0.70249700  1
  Si  Si10  1  0.21792900  0.59243800  0.29750300  1
  Si  Si11  1  0.59243800  0.21792900  0.29750300  1
  H  H12  1  0.68368800  0.14727100  0.79884000  1
  H  H13  1  0.14727100  0.68368800  0.79884000  1
  H  H14  1  0.31631200  0.85272900  0.20116000  1
  H  H15  1  0.85272900  0.31631200  0.20116000  1
  O  O16  1  0.03865600  0.63892200  0.76657600  1
  O  O17  1  0.63892200  0.03865600  0.76657600  1
  O  O18  1  0.96134400  0.36107800  0.23342400  1
  O  O19  1  0.36107800  0.96134400  0.23342400  1
  O  O20  1  0.71993100  0.22682900  0.83317600  1
  O  O21  1  0.22682900  0.71993100  0.83317600  1
  O  O22  1  0.28006900  0.77317100  0.16682400  1
  O  O23  1  0.77317100  0.28006900  0.16682400  1
  O  O24  1  0.96287700  0.38621400  0.73720700  1
  O  O25  1  0.38621400  0.96287700  0.73720700  1
  O  O26  1  0.03712300  0.61378600  0.26279300  1
  O  O27  1  0.61378600  0.03712300  0.26279300  1
  O  O28  1  0.15620200  0.59510100  0.48000400  1
  O  O29  1  0.59510100  0.15620200  0.48000400  1
  O  O30  1  0.84379800  0.40489900  0.51999600  1
  O  O31  1  0.40489900  0.84379800  0.51999600  1
  O  O32  1  0.61083800  0.61083800  0.72877300  1
  O  O33  1  0.38916200  0.38916200  0.27122700  1
  O  O34  1  0.31297600  0.31297600  0.71094200  1
  O  O35  1  0.68702400  0.68702400  0.28905800  1
