# generated using pymatgen
data_Zn8B4H3O15F
_symmetry_space_group_name_H-M   'P 1'
_cell_length_a   4.99443400
_cell_length_b   8.33910425
_cell_length_c   9.74685628
_cell_angle_alpha   101.16822838
_cell_angle_beta   90.21276278
_cell_angle_gamma   90.01395446
_symmetry_Int_Tables_number   1
_chemical_formula_structural   Zn8B4H3O15F
_chemical_formula_sum   'Zn8 B4 H3 O15 F1'
_cell_volume   398.25735904
_cell_formula_units_Z   1
loop_
 _symmetry_equiv_pos_site_id
 _symmetry_equiv_pos_as_xyz
  1  'x, y, z'
loop_
 _atom_site_type_symbol
 _atom_site_label
 _atom_site_symmetry_multiplicity
 _atom_site_fract_x
 _atom_site_fract_y
 _atom_site_fract_z
 _atom_site_occupancy
  Zn  Zn0  1  0.51747300  0.22369600  0.84791300  1
  Zn  Zn1  1  0.51822300  0.71851400  0.34312900  1
  Zn  Zn2  1  0.01798400  0.77847200  0.15165300  1
  Zn  Zn3  1  0.01739800  0.27687300  0.65024700  1
  Zn  Zn4  1  0.50108200  0.34911200  0.20369900  1
  Zn  Zn5  1  0.50100300  0.84901700  0.71058300  1
  Zn  Zn6  1  0.00157200  0.64911000  0.79576100  1
  Zn  Zn7  1  0.00114500  0.15015400  0.29722100  1
  B  B8  1  0.00484800  0.51678400  0.30632700  1
  B  B9  1  0.00344400  0.01718300  0.80516400  1
  B  B10  1  0.50434300  0.48363500  0.69351400  1
  B  B11  1  0.50391100  0.98428300  0.19428500  1
  H  H12  1  0.17317700  0.52891500  0.99294700  1
  H  H13  1  0.17932400  0.02837100  0.49250500  1
  H  H14  1  0.67437900  0.47129200  0.00749500  1
  O  O15  1  0.64053500  0.63118500  0.71233500  1
  O  O16  1  0.64002900  0.13104800  0.21282300  1
  O  O17  1  0.13900300  0.36940500  0.28387100  1
  O  O18  1  0.13614800  0.86887400  0.78455400  1
  O  O19  1  0.22848900  0.48155300  0.67855800  1
  O  O20  1  0.22834500  0.98113300  0.17716300  1
  O  O21  1  0.72886300  0.51831900  0.32375400  1
  O  O22  1  0.72698600  0.01984900  0.82077500  1
  O  O23  1  0.64069700  0.34018700  0.69581400  1
  O  O24  1  0.63948000  0.83965400  0.19669500  1
  O  O25  1  0.13756300  0.66231600  0.30597100  1
  O  O26  1  0.13880100  0.16158900  0.80616100  1
  O  O27  1  0.01526800  0.59845500  0.98677800  1
  O  O28  1  0.03350800  0.10537200  0.48527100  1
  O  O29  1  0.51571500  0.40283200  0.01370000  1
  F  F30  1  0.49426700  0.88782000  0.51533300  1
