# generated using pymatgen
data_Tb5P12Ru19
_symmetry_space_group_name_H-M   'P 1'
_cell_length_a   3.98196455
_cell_length_b   12.55713304
_cell_length_c   12.55729840
_cell_angle_alpha   119.99956459
_cell_angle_beta   90.00000000
_cell_angle_gamma   90.00000000
_symmetry_Int_Tables_number   1
_chemical_formula_structural   Tb5P12Ru19
_chemical_formula_sum   'Tb5 P12 Ru19'
_cell_volume   543.77174373
_cell_formula_units_Z   1
loop_
 _symmetry_equiv_pos_site_id
 _symmetry_equiv_pos_as_xyz
  1  'x, y, z'
loop_
 _atom_site_type_symbol
 _atom_site_label
 _atom_site_symmetry_multiplicity
 _atom_site_fract_x
 _atom_site_fract_y
 _atom_site_fract_z
 _atom_site_occupancy
  Tb  Tb0  1  0.50000000  0.99999726  0.18456957  1
  Tb  Tb1  1  0.50000000  0.18456152  0.00000000  1
  Tb  Tb2  1  0.50000000  0.81542768  0.81543043  1
  Tb  Tb3  1  0.00000000  0.33330378  0.66667414  1
  Tb  Tb4  1  0.00000000  0.66662964  0.33332586  1
  P  P5  1  0.00000000  -0.00000339  0.81555737  1
  P  P6  1  0.00000000  0.81556887  0.00000000  1
  P  P7  1  0.00000000  0.18443923  0.18444263  1
  P  P8  1  0.50000000  0.30732035  0.47756913  1
  P  P9  1  0.50000000  0.17023255  0.69266917  1
  P  P10  1  0.50000000  0.52243216  0.82976064  1
  P  P11  1  0.50000000  0.82975122  0.52243087  1
  P  P12  1  0.50000000  0.47756338  0.30733083  1
  P  P13  1  0.50000000  0.69267152  0.17023936  1
  P  P14  1  0.00000000  0.00000411  0.37272513  1
  P  P15  1  0.00000000  0.37271691  0.00000000  1
  P  P16  1  0.00000000  0.62727898  0.62727487  1
  Ru  Ru17  1  0.00000000  0.00000203  0.55443069  1
  Ru  Ru18  1  -0.00000000  0.55443038  -0.00000000  1
  Ru  Ru19  1  -0.00000000  0.44557133  0.44556931  1
  Ru  Ru20  1  0.50000000  -0.00000121  0.71705124  1
  Ru  Ru21  1  0.50000000  0.71705521  0.00000000  1
  Ru  Ru22  1  0.50000000  0.28294754  0.28294876  1
  Ru  Ru23  1  0.00000000  0.19255642  0.37699696  1
  Ru  Ru24  1  -0.00000000  0.18444342  0.80745048  1
  Ru  Ru25  1  0.00000000  0.62300840  0.81556091  1
  Ru  Ru26  1  0.00000000  0.81555946  0.62300304  1
  Ru  Ru27  1  -0.00000000  0.37699294  0.19254952  1
  Ru  Ru28  1  0.00000000  0.80744749  0.18443909  1
  Ru  Ru29  1  0.50000000  0.12599724  0.49110147  1
  Ru  Ru30  1  0.50000000  0.36509865  0.87400379  1
  Ru  Ru31  1  0.50000000  0.50889643  0.63489511  1
  Ru  Ru32  1  0.50000000  0.63489577  0.50889853  1
  Ru  Ru33  1  0.50000000  0.49109486  0.12599621  1
  Ru  Ru34  1  0.50000000  0.87400132  0.36510489  1
  Ru  Ru35  1  0.00000000  0.00000658  0.00000000  1
