# generated using pymatgen
data_Sr3Fe2MoO9
_symmetry_space_group_name_H-M   'P 1'
_cell_length_a   9.77507866
_cell_length_b   9.77507866
_cell_length_c   5.63018111
_cell_angle_alpha   73.29080494
_cell_angle_beta   73.29080494
_cell_angle_gamma   48.36775695
_symmetry_Int_Tables_number   1
_chemical_formula_structural   Sr3Fe2MoO9
_chemical_formula_sum   'Sr6 Fe4 Mo2 O18'
_cell_volume   381.60287002
_cell_formula_units_Z   2
loop_
 _symmetry_equiv_pos_site_id
 _symmetry_equiv_pos_as_xyz
  1  'x, y, z'
loop_
 _atom_site_type_symbol
 _atom_site_label
 _atom_site_symmetry_multiplicity
 _atom_site_fract_x
 _atom_site_fract_y
 _atom_site_fract_z
 _atom_site_occupancy
  Sr  Sr0  1  0.91754100  0.39919600  0.84357200  1
  Sr  Sr1  1  0.23311700  0.76688300  0.50000000  1
  Sr  Sr2  1  0.60080400  0.08245900  0.15642800  1
  Sr  Sr3  1  0.76688300  0.23311700  0.50000000  1
  Sr  Sr4  1  0.08245900  0.60080400  0.15642800  1
  Sr  Sr5  1  0.39919600  0.91754100  0.84357200  1
  Fe  Fe6  1  0.50000000  0.50000000  0.00000000  1
  Fe  Fe7  1  0.83510400  0.83510400  0.66431100  1
  Fe  Fe8  1  0.16489600  0.16489600  0.33568900  1
  Fe  Fe9  1  0.00000000  0.00000000  0.00000000  1
  Mo  Mo10  1  0.33223000  0.33223000  0.66609300  1
  Mo  Mo11  1  0.66777000  0.66777000  0.33390700  1
  O  O12  1  0.42608300  0.91179200  0.33057700  1
  O  O13  1  0.74430300  0.25569700  0.00000000  1
  O  O14  1  0.08820800  0.57391700  0.66942300  1
  O  O15  1  0.91179200  0.42608300  0.33057700  1
  O  O16  1  0.25569700  0.74430300  0.00000000  1
  O  O17  1  0.57391700  0.08820800  0.66942300  1
  O  O18  1  0.07904700  0.07904700  0.19097000  1
  O  O19  1  0.40633700  0.40633700  0.85723200  1
  O  O20  1  0.73884500  0.73884500  0.53257100  1
  O  O21  1  0.59366300  0.59366300  0.14276800  1
  O  O22  1  0.92095300  0.92095300  0.80903000  1
  O  O23  1  0.26115500  0.26115500  0.46742900  1
  O  O24  1  0.57852800  0.57852800  0.63987300  1
  O  O25  1  0.90713100  0.90713100  0.32324300  1
  O  O26  1  0.24510400  0.24510400  0.97686500  1
  O  O27  1  0.09286900  0.09286900  0.67675700  1
  O  O28  1  0.42147200  0.42147200  0.36012700  1
  O  O29  1  0.75489600  0.75489600  0.02313500  1
