# generated using pymatgen
data_Lu11Cd45
_symmetry_space_group_name_H-M   'P 1'
_cell_length_a   15.34888547
_cell_length_b   15.34888547
_cell_length_c   15.34888547
_cell_angle_alpha   60.00000000
_cell_angle_beta   60.00000000
_cell_angle_gamma   60.00000000
_symmetry_Int_Tables_number   1
_chemical_formula_structural   Lu11Cd45
_chemical_formula_sum   'Lu22 Cd90'
_cell_volume   2556.91057128
_cell_formula_units_Z   2
loop_
 _symmetry_equiv_pos_site_id
 _symmetry_equiv_pos_as_xyz
  1  'x, y, z'
loop_
 _atom_site_type_symbol
 _atom_site_label
 _atom_site_symmetry_multiplicity
 _atom_site_fract_x
 _atom_site_fract_y
 _atom_site_fract_z
 _atom_site_occupancy
  Lu  Lu0  1  0.00000000  0.00000000  0.00000000  1
  Lu  Lu1  1  0.01379400  0.33435600  0.63805600  1
  Lu  Lu2  1  0.01379400  0.01379400  0.63805600  1
  Lu  Lu3  1  0.33435600  0.01379400  0.63805600  1
  Lu  Lu4  1  0.01379400  0.63805600  0.33435600  1
  Lu  Lu5  1  0.33435600  0.63805600  0.01379400  1
  Lu  Lu6  1  0.01379400  0.63805600  0.01379400  1
  Lu  Lu7  1  0.63805600  0.01379400  0.01379400  1
  Lu  Lu8  1  0.63805600  0.33435600  0.01379400  1
  Lu  Lu9  1  0.63805600  0.01379400  0.33435600  1
  Lu  Lu10  1  0.33435600  0.01379400  0.01379400  1
  Lu  Lu11  1  0.01379400  0.01379400  0.33435600  1
  Lu  Lu12  1  0.01379400  0.33435600  0.01379400  1
  Lu  Lu13  1  0.25000000  0.25000000  0.25000000  1
  Lu  Lu14  1  0.40635500  0.40635500  0.78093600  1
  Lu  Lu15  1  0.40635500  0.78093600  0.40635500  1
  Lu  Lu16  1  0.78093600  0.40635500  0.40635500  1
  Lu  Lu17  1  0.40635500  0.40635500  0.40635500  1
  Lu  Lu18  1  0.66164100  0.66164100  0.01507700  1
  Lu  Lu19  1  0.66164100  0.01507700  0.66164100  1
  Lu  Lu20  1  0.01507700  0.66164100  0.66164100  1
  Lu  Lu21  1  0.66164100  0.66164100  0.66164100  1
  Cd  Cd22  1  0.08324000  0.08324000  0.75027900  1
  Cd  Cd23  1  0.08324000  0.75027900  0.08324000  1
  Cd  Cd24  1  0.75027900  0.08324000  0.08324000  1
  Cd  Cd25  1  0.08324000  0.08324000  0.08324000  1
  Cd  Cd26  1  0.91321800  0.91321800  0.26034600  1
  Cd  Cd27  1  0.91321800  0.26034600  0.91321800  1
  Cd  Cd28  1  0.26034600  0.91321800  0.91321800  1
  Cd  Cd29  1  0.91321800  0.91321800  0.91321800  1
  Cd  Cd30  1  0.15609500  0.15609500  0.84390500  1
  Cd  Cd31  1  0.84390500  0.15609500  0.84390500  1
  Cd  Cd32  1  0.15609500  0.84390500  0.84390500  1
  Cd  Cd33  1  0.84390500  0.84390500  0.15609500  1
  Cd  Cd34  1  0.15609500  0.84390500  0.15609500  1
  Cd  Cd35  1  0.84390500  0.15609500  0.15609500  1
  Cd  Cd36  1  0.39063100  0.20130900  0.01743000  1
  Cd  Cd37  1  0.39063100  0.39063100  0.01743000  1
  Cd  Cd38  1  0.20130900  0.39063100  0.01743000  1
  Cd  Cd39  1  0.39063100  0.01743000  0.20130900  1
  Cd  Cd40  1  0.20130900  0.01743000  0.39063100  1
  Cd  Cd41  1  0.39063100  0.01743000  0.39063100  1
  Cd  Cd42  1  0.01743000  0.39063100  0.39063100  1
  Cd  Cd43  1  0.01743000  0.20130900  0.39063100  1
  Cd  Cd44  1  0.01743000  0.39063100  0.20130900  1
  Cd  Cd45  1  0.20130900  0.39063100  0.39063100  1
  Cd  Cd46  1  0.39063100  0.39063100  0.20130900  1
  Cd  Cd47  1  0.39063100  0.20130900  0.39063100  1
  Cd  Cd48  1  0.16345400  0.16345400  0.50963800  1
  Cd  Cd49  1  0.16345400  0.50963800  0.16345400  1
  Cd  Cd50  1  0.50963800  0.16345400  0.16345400  1
  Cd  Cd51  1  0.16345400  0.16345400  0.16345400  1
  Cd  Cd52  1  0.26318000  0.61159000  0.86205000  1
  Cd  Cd53  1  0.26318000  0.26318000  0.86205000  1
  Cd  Cd54  1  0.61159000  0.26318000  0.86205000  1
  Cd  Cd55  1  0.26318000  0.86205000  0.61159000  1
  Cd  Cd56  1  0.61159000  0.86205000  0.26318000  1
  Cd  Cd57  1  0.26318000  0.86205000  0.26318000  1
  Cd  Cd58  1  0.86205000  0.26318000  0.26318000  1
  Cd  Cd59  1  0.86205000  0.61159000  0.26318000  1
  Cd  Cd60  1  0.86205000  0.26318000  0.61159000  1
  Cd  Cd61  1  0.61159000  0.26318000  0.26318000  1
  Cd  Cd62  1  0.26318000  0.26318000  0.61159000  1
  Cd  Cd63  1  0.26318000  0.61159000  0.26318000  1
  Cd  Cd64  1  0.50000000  0.50000000  0.50000000  1
  Cd  Cd65  1  0.64037000  0.45030100  0.26896000  1
  Cd  Cd66  1  0.64037000  0.64037000  0.26896000  1
  Cd  Cd67  1  0.45030100  0.64037000  0.26896000  1
  Cd  Cd68  1  0.64037000  0.26896000  0.45030100  1
  Cd  Cd69  1  0.45030100  0.26896000  0.64037000  1
  Cd  Cd70  1  0.64037000  0.26896000  0.64037000  1
  Cd  Cd71  1  0.26896000  0.64037000  0.64037000  1
  Cd  Cd72  1  0.26896000  0.45030100  0.64037000  1
  Cd  Cd73  1  0.26896000  0.64037000  0.45030100  1
  Cd  Cd74  1  0.45030100  0.64037000  0.64037000  1
  Cd  Cd75  1  0.64037000  0.64037000  0.45030100  1
  Cd  Cd76  1  0.64037000  0.45030100  0.64037000  1
  Cd  Cd77  1  0.51260100  0.83366200  0.14113500  1
  Cd  Cd78  1  0.51260100  0.51260100  0.14113500  1
  Cd  Cd79  1  0.83366200  0.51260100  0.14113500  1
  Cd  Cd80  1  0.51260100  0.14113500  0.83366200  1
  Cd  Cd81  1  0.83366200  0.14113500  0.51260100  1
  Cd  Cd82  1  0.51260100  0.14113500  0.51260100  1
  Cd  Cd83  1  0.14113500  0.51260100  0.51260100  1
  Cd  Cd84  1  0.14113500  0.83366200  0.51260100  1
  Cd  Cd85  1  0.14113500  0.51260100  0.83366200  1
  Cd  Cd86  1  0.83366200  0.51260100  0.51260100  1
  Cd  Cd87  1  0.51260100  0.51260100  0.83366200  1
  Cd  Cd88  1  0.51260100  0.83366200  0.51260100  1
  Cd  Cd89  1  0.75000000  0.75000000  0.75000000  1
  Cd  Cd90  1  0.83006400  0.83006400  0.50980800  1
  Cd  Cd91  1  0.83006400  0.50980800  0.83006400  1
  Cd  Cd92  1  0.50980800  0.83006400  0.83006400  1
  Cd  Cd93  1  0.83006400  0.83006400  0.83006400  1
  Cd  Cd94  1  0.91056700  0.91056700  0.58943300  1
  Cd  Cd95  1  0.58943300  0.91056700  0.58943300  1
  Cd  Cd96  1  0.91056700  0.58943300  0.58943300  1
  Cd  Cd97  1  0.58943300  0.58943300  0.91056700  1
  Cd  Cd98  1  0.91056700  0.58943300  0.91056700  1
  Cd  Cd99  1  0.58943300  0.91056700  0.91056700  1
  Cd  Cd100  1  0.76408600  0.06683900  0.40498800  1
  Cd  Cd101  1  0.76408600  0.76408600  0.40498800  1
  Cd  Cd102  1  0.06683900  0.76408600  0.40498800  1
  Cd  Cd103  1  0.76408600  0.40498800  0.06683900  1
  Cd  Cd104  1  0.06683900  0.40498800  0.76408600  1
  Cd  Cd105  1  0.76408600  0.40498800  0.76408600  1
  Cd  Cd106  1  0.40498800  0.76408600  0.76408600  1
  Cd  Cd107  1  0.40498800  0.06683900  0.76408600  1
  Cd  Cd108  1  0.40498800  0.76408600  0.06683900  1
  Cd  Cd109  1  0.06683900  0.76408600  0.76408600  1
  Cd  Cd110  1  0.76408600  0.76408600  0.06683900  1
  Cd  Cd111  1  0.76408600  0.06683900  0.76408600  1
