# generated using pymatgen
data_Tl2TeS3
_symmetry_space_group_name_H-M   'P 1'
_cell_length_a   6.23883000
_cell_length_b   8.81875100
_cell_length_c   13.39413600
_cell_angle_alpha   90.00000000
_cell_angle_beta   90.00000000
_cell_angle_gamma   90.00000000
_symmetry_Int_Tables_number   1
_chemical_formula_structural   Tl2TeS3
_chemical_formula_sum   'Tl8 Te4 S12'
_cell_volume   736.92779365
_cell_formula_units_Z   4
loop_
 _symmetry_equiv_pos_site_id
 _symmetry_equiv_pos_as_xyz
  1  'x, y, z'
loop_
 _atom_site_type_symbol
 _atom_site_label
 _atom_site_symmetry_multiplicity
 _atom_site_fract_x
 _atom_site_fract_y
 _atom_site_fract_z
 _atom_site_occupancy
  Tl  Tl0  1  0.23569000  0.34261800  0.57921600  1
  Tl  Tl1  1  0.76431000  0.65738200  0.07921600  1
  Tl  Tl2  1  0.26431000  0.84261800  0.92078400  1
  Tl  Tl3  1  0.73569000  0.15738200  0.42078400  1
  Tl  Tl4  1  0.73569000  0.15738200  0.07921600  1
  Tl  Tl5  1  0.23569000  0.34261800  0.92078400  1
  Tl  Tl6  1  0.76431000  0.65738200  0.42078400  1
  Tl  Tl7  1  0.26431000  0.84261800  0.57921600  1
  Te  Te8  1  0.71458700  0.07349200  0.75000000  1
  Te  Te9  1  0.78541300  0.57349200  0.75000000  1
  Te  Te10  1  0.21458700  0.42650800  0.25000000  1
  Te  Te11  1  0.28541300  0.92650800  0.25000000  1
  S  S12  1  0.78190700  0.91277900  0.89119400  1
  S  S13  1  0.28190700  0.58722100  0.10880600  1
  S  S14  1  0.71809300  0.41277900  0.60880600  1
  S  S15  1  0.21809300  0.08722100  0.39119400  1
  S  S16  1  0.21809300  0.08722100  0.10880600  1
  S  S17  1  0.71809300  0.41277900  0.89119400  1
  S  S18  1  0.28190700  0.58722100  0.39119400  1
  S  S19  1  0.32796400  0.07889600  0.75000000  1
  S  S20  1  0.67203600  0.92110400  0.25000000  1
  S  S21  1  0.17203600  0.57889600  0.75000000  1
  S  S22  1  0.82796400  0.42110400  0.25000000  1
  S  S23  1  0.78190700  0.91277900  0.60880600  1
