# generated using pymatgen
data_Gd2Fe17C3
_symmetry_space_group_name_H-M   'P 1'
_cell_length_a   6.50450286
_cell_length_b   6.50450286
_cell_length_c   6.50450218
_cell_angle_alpha   83.55383334
_cell_angle_beta   83.55383334
_cell_angle_gamma   83.55384604
_symmetry_Int_Tables_number   1
_chemical_formula_structural   Gd2Fe17C3
_chemical_formula_sum   'Gd2 Fe17 C3'
_cell_volume   270.33963666
_cell_formula_units_Z   1
loop_
 _symmetry_equiv_pos_site_id
 _symmetry_equiv_pos_as_xyz
  1  'x, y, z'
loop_
 _atom_site_type_symbol
 _atom_site_label
 _atom_site_symmetry_multiplicity
 _atom_site_fract_x
 _atom_site_fract_y
 _atom_site_fract_z
 _atom_site_occupancy
  Gd  Gd0  1  0.66101400  0.66101400  0.66101400  1
  Gd  Gd1  1  0.33898600  0.33898600  0.33898600  1
  Fe  Fe2  1  0.00000000  0.00000000  0.50000000  1
  Fe  Fe3  1  0.00000000  0.50000000  0.00000000  1
  Fe  Fe4  1  0.50000000  0.00000000  0.00000000  1
  Fe  Fe5  1  0.28449400  0.71550600  0.00000000  1
  Fe  Fe6  1  0.71550600  0.00000000  0.28449400  1
  Fe  Fe7  1  0.00000000  0.28449400  0.71550600  1
  Fe  Fe8  1  0.28449400  0.00000000  0.71550600  1
  Fe  Fe9  1  0.00000000  0.71550600  0.28449400  1
  Fe  Fe10  1  0.71550600  0.28449400  0.00000000  1
  Fe  Fe11  1  0.34481800  0.34481800  0.85461700  1
  Fe  Fe12  1  0.34481800  0.85461700  0.34481800  1
  Fe  Fe13  1  0.85461700  0.34481800  0.34481800  1
  Fe  Fe14  1  0.65518200  0.65518200  0.14538300  1
  Fe  Fe15  1  0.65518200  0.14538300  0.65518200  1
  Fe  Fe16  1  0.14538300  0.65518200  0.65518200  1
  Fe  Fe17  1  0.90536300  0.90536300  0.90536300  1
  Fe  Fe18  1  0.09463700  0.09463700  0.09463700  1
  C  C19  1  0.50000000  0.50000000  0.00000000  1
  C  C20  1  0.50000000  0.00000000  0.50000000  1
  C  C21  1  0.00000000  0.50000000  0.50000000  1
