# generated using pymatgen
data_MnNb8(FeO8)3
_symmetry_space_group_name_H-M   'P 1'
_cell_length_a   5.88021300
_cell_length_b   5.13262200
_cell_length_c   14.53049183
_cell_angle_alpha   89.88197776
_cell_angle_beta   90.00000000
_cell_angle_gamma   90.00000000
_symmetry_Int_Tables_number   1
_chemical_formula_structural   MnNb8(FeO8)3
_chemical_formula_sum   'Mn1 Nb8 Fe3 O24'
_cell_volume   438.54254454
_cell_formula_units_Z   1
loop_
 _symmetry_equiv_pos_site_id
 _symmetry_equiv_pos_as_xyz
  1  'x, y, z'
loop_
 _atom_site_type_symbol
 _atom_site_label
 _atom_site_symmetry_multiplicity
 _atom_site_fract_x
 _atom_site_fract_y
 _atom_site_fract_z
 _atom_site_occupancy
  Mn  Mn0  1  0.82745500  0.50000000  0.50000000  1
  Nb  Nb1  1  0.31851300  0.50250200  0.66177100  1
  Nb  Nb2  1  0.18106000  0.00161000  0.83969300  1
  Nb  Nb3  1  0.18106000  0.99839000  0.16030700  1
  Nb  Nb4  1  0.31851300  0.49749800  0.33822900  1
  Nb  Nb5  1  0.68147900  0.99579100  0.33771400  1
  Nb  Nb6  1  0.81942900  0.49726900  0.16071300  1
  Nb  Nb7  1  0.81942900  0.50273100  0.83928700  1
  Nb  Nb8  1  0.68147900  0.00420900  0.66228600  1
  Fe  Fe9  1  0.33653700  0.50000000  0.00000000  1
  Fe  Fe10  1  0.17000900  0.00000000  0.50000000  1
  Fe  Fe11  1  0.66575100  0.00000000  0.00000000  1
  O  O12  1  0.10288100  0.67887700  0.90256400  1
  O  O13  1  0.39807100  0.18311800  0.59716500  1
  O  O14  1  0.39807100  0.81688200  0.40283500  1
  O  O15  1  0.10288100  0.32112300  0.09743600  1
  O  O16  1  0.89378800  0.82122400  0.09711500  1
  O  O17  1  0.60138900  0.31622900  0.40103900  1
  O  O18  1  0.60138900  0.68377100  0.59896100  1
  O  O19  1  0.89378800  0.17877600  0.90288500  1
  O  O20  1  0.12677800  0.66915600  0.24405200  1
  O  O21  1  0.37196700  0.16681500  0.25412300  1
  O  O22  1  0.37196700  0.83318500  0.74587700  1
  O  O23  1  0.12677800  0.33084400  0.75594800  1
  O  O24  1  0.87342100  0.83244300  0.75592200  1
  O  O25  1  0.62705400  0.33267000  0.74471300  1
  O  O26  1  0.62705400  0.66733000  0.25528700  1
  O  O27  1  0.87342100  0.16755700  0.24407800  1
  O  O28  1  0.12053000  0.65526100  0.58068200  1
  O  O29  1  0.38105300  0.15866100  0.92000100  1
  O  O30  1  0.38105300  0.84133900  0.07999900  1
  O  O31  1  0.12053000  0.34473900  0.41931800  1
  O  O32  1  0.88379500  0.84983100  0.41919100  1
  O  O33  1  0.61891700  0.34609300  0.08061700  1
  O  O34  1  0.61891700  0.65390700  0.91938300  1
  O  O35  1  0.88379500  0.15016900  0.58080900  1
