# generated using pymatgen
data_Mn2InSbPd4
_symmetry_space_group_name_H-M   'P 1'
_cell_length_a   7.88461765
_cell_length_b   7.88461765
_cell_length_c   7.88461818
_cell_angle_alpha   33.60825627
_cell_angle_beta   33.60825627
_cell_angle_gamma   33.60825570
_symmetry_Int_Tables_number   1
_chemical_formula_structural   Mn2InSbPd4
_chemical_formula_sum   'Mn2 In1 Sb1 Pd4'
_cell_volume   133.77491438
_cell_formula_units_Z   1
loop_
 _symmetry_equiv_pos_site_id
 _symmetry_equiv_pos_as_xyz
  1  'x, y, z'
loop_
 _atom_site_type_symbol
 _atom_site_label
 _atom_site_symmetry_multiplicity
 _atom_site_fract_x
 _atom_site_fract_y
 _atom_site_fract_z
 _atom_site_occupancy
  Mn  Mn0  1  0.25137900  0.25137900  0.25137900  1
  Mn  Mn1  1  0.74862100  0.74862100  0.74862100  1
  In  In2  1  0.00000000  0.00000000  0.00000000  1
  Sb  Sb3  1  0.50000000  0.50000000  0.50000000  1
  Pd  Pd4  1  0.62464800  0.62464800  0.62464800  1
  Pd  Pd5  1  0.12505300  0.12505300  0.12505300  1
  Pd  Pd6  1  0.87494700  0.87494700  0.87494700  1
  Pd  Pd7  1  0.37535200  0.37535200  0.37535200  1
