# generated using pymatgen
data_EuAgO2
_symmetry_space_group_name_H-M   'P 1'
_cell_length_a   3.68829405
_cell_length_b   3.68829405
_cell_length_c   6.46484205
_cell_angle_alpha   76.55704635
_cell_angle_beta   76.55704635
_cell_angle_gamma   59.98460921
_symmetry_Int_Tables_number   1
_chemical_formula_structural   EuAgO2
_chemical_formula_sum   'Eu1 Ag1 O2'
_cell_volume   73.35582806
_cell_formula_units_Z   1
loop_
 _symmetry_equiv_pos_site_id
 _symmetry_equiv_pos_as_xyz
  1  'x, y, z'
loop_
 _atom_site_type_symbol
 _atom_site_label
 _atom_site_symmetry_multiplicity
 _atom_site_fract_x
 _atom_site_fract_y
 _atom_site_fract_z
 _atom_site_occupancy
  Eu  Eu0  1  0.50000000  0.50000000  0.50000000  1
  Ag  Ag1  1  0.00000000  0.00000000  0.00000000  1
  O  O2  1  0.12168400  0.12168400  0.66942600  1
  O  O3  1  0.87831600  0.87831600  0.33057400  1
