# generated using pymatgen
data_Rb3(Cr5Te8)4
_symmetry_space_group_name_H-M   'P 1'
_cell_length_a   11.14075658
_cell_length_b   13.72517761
_cell_length_c   11.88500425
_cell_angle_alpha   114.71947618
_cell_angle_beta   102.31966655
_cell_angle_gamma   100.55725784
_symmetry_Int_Tables_number   1
_chemical_formula_structural   Rb3(Cr5Te8)4
_chemical_formula_sum   'Rb3 Cr20 Te32'
_cell_volume   1534.90083249
_cell_formula_units_Z   1
loop_
 _symmetry_equiv_pos_site_id
 _symmetry_equiv_pos_as_xyz
  1  'x, y, z'
loop_
 _atom_site_type_symbol
 _atom_site_label
 _atom_site_symmetry_multiplicity
 _atom_site_fract_x
 _atom_site_fract_y
 _atom_site_fract_z
 _atom_site_occupancy
  Rb  Rb0  1  0.61968900  0.11963500  0.49994100  1
  Rb  Rb1  1  0.87500000  0.37500000  0.50000000  1
  Rb  Rb2  1  0.13031100  0.63036500  0.50005900  1
  Cr  Cr3  1  0.94490600  0.61144000  0.96392900  1
  Cr  Cr4  1  0.69417600  0.36088800  0.96319400  1
  Cr  Cr5  1  0.44451600  0.11105100  0.96173000  1
  Cr  Cr6  1  0.19583200  0.86205400  0.96360100  1
  Cr  Cr7  1  0.05582400  0.38911200  0.03680600  1
  Cr  Cr8  1  0.80509400  0.13856000  0.03607100  1
  Cr  Cr9  1  0.55416800  0.88794600  0.03639900  1
  Cr  Cr10  1  0.30548400  0.63894900  0.03827000  1
  Cr  Cr11  1  0.24326300  0.25109500  0.66196600  1
  Cr  Cr12  1  0.99240600  0.00063400  0.66157100  1
  Cr  Cr13  1  0.74239000  0.75235500  0.66273900  1
  Cr  Cr14  1  0.49358300  0.50238300  0.66250900  1
  Cr  Cr15  1  0.75759400  0.74936600  0.33842900  1
  Cr  Cr16  1  0.50673700  0.49890500  0.33803400  1
  Cr  Cr17  1  0.25641700  0.24761700  0.33749100  1
  Cr  Cr18  1  0.00761000  0.99764500  0.33726100  1
  Cr  Cr19  1  0.75017200  0.75012600  0.00012100  1
  Cr  Cr20  1  0.50028700  0.50034800  0.00045100  1
  Cr  Cr21  1  0.24971300  0.24965200  0.99954900  1
  Cr  Cr22  1  0.99982800  0.99987400  0.99987900  1
  Te  Te23  1  0.00589900  0.85304300  0.76100900  1
  Te  Te24  1  0.75607400  0.60295600  0.76101400  1
  Te  Te25  1  0.50596800  0.35284600  0.76148100  1
  Te  Te26  1  0.25603900  0.10362700  0.76245300  1
  Te  Te27  1  0.99392500  0.14704300  0.23898600  1
  Te  Te28  1  0.74410000  0.89695600  0.23899100  1
  Te  Te29  1  0.49396000  0.64637400  0.23754700  1
  Te  Te30  1  0.24403100  0.39715400  0.23851900  1
  Te  Te31  1  0.76662700  0.60209600  0.43590800  1
  Te  Te32  1  0.51624800  0.35174600  0.43556000  1
  Te  Te33  1  0.26600800  0.10103700  0.43492500  1
  Te  Te34  1  0.01674000  0.85172400  0.43510800  1
  Te  Te35  1  0.23375100  0.39825300  0.56444000  1
  Te  Te36  1  0.98337200  0.14790300  0.56409200  1
  Te  Te37  1  0.73325900  0.89827500  0.56489200  1
  Te  Te38  1  0.48399100  0.64896300  0.56507500  1
  Te  Te39  1  0.23263500  0.40151600  0.90262800  1
  Te  Te40  1  0.98234000  0.15131500  0.90216100  1
  Te  Te41  1  0.73227500  0.90213700  0.90255000  1
  Te  Te42  1  0.48233200  0.65234900  0.90286400  1
  Te  Te43  1  0.76766000  0.59868500  0.09783900  1
  Te  Te44  1  0.51736500  0.34848400  0.09737200  1
  Te  Te45  1  0.26766800  0.09765100  0.09713600  1
  Te  Te46  1  0.01772500  0.84786300  0.09745000  1
  Te  Te47  1  0.12175300  0.63241400  0.84195100  1
  Te  Te48  1  0.87091900  0.38196800  0.84135100  1
  Te  Te49  1  0.62124700  0.13219500  0.84158400  1
  Te  Te50  1  0.37179500  0.88270700  0.84187500  1
  Te  Te51  1  0.87908100  0.36803200  0.15864900  1
  Te  Te52  1  0.62824700  0.11758600  0.15804900  1
  Te  Te53  1  0.37820500  0.86729300  0.15812500  1
  Te  Te54  1  0.12875300  0.61780500  0.15841600  1
