# generated using pymatgen
data_K3Ti8O17
_symmetry_space_group_name_H-M   'P 1'
_cell_length_a   8.12439240
_cell_length_b   8.12439240
_cell_length_c   12.20931250
_cell_angle_alpha   84.85052917
_cell_angle_beta   84.85052917
_cell_angle_gamma   27.28448204
_symmetry_Int_Tables_number   1
_chemical_formula_structural   K3Ti8O17
_chemical_formula_sum   'K3 Ti8 O17'
_cell_volume   367.84572092
_cell_formula_units_Z   1
loop_
 _symmetry_equiv_pos_site_id
 _symmetry_equiv_pos_as_xyz
  1  'x, y, z'
loop_
 _atom_site_type_symbol
 _atom_site_label
 _atom_site_symmetry_multiplicity
 _atom_site_fract_x
 _atom_site_fract_y
 _atom_site_fract_z
 _atom_site_occupancy
  K  K0  1  0.55764200  0.55764200  0.16840500  1
  K  K1  1  0.44328300  0.44328300  0.82460200  1
  K  K2  1  0.50985700  0.50985700  0.46243000  1
  Ti  Ti3  1  0.84776400  0.84776400  0.32396700  1
  Ti  Ti4  1  0.15134600  0.15134600  0.67467400  1
  Ti  Ti5  1  0.75789200  0.75789200  0.83011000  1
  Ti  Ti6  1  0.24149200  0.24149200  0.17026000  1
  Ti  Ti7  1  0.88815400  0.88815400  0.06959300  1
  Ti  Ti8  1  0.11130500  0.11130500  0.92914500  1
  Ti  Ti9  1  0.80406400  0.80406400  0.57820000  1
  Ti  Ti10  1  0.19888300  0.19888300  0.42319500  1
  O  O11  1  0.82813300  0.82813300  0.93592300  1
  O  O12  1  0.17187900  0.17187900  0.06451600  1
  O  O13  1  0.72572900  0.72572900  0.43262700  1
  O  O14  1  0.27450700  0.27450700  0.56693200  1
  O  O15  1  0.63720800  0.63720800  0.91240100  1
  O  O16  1  0.36266200  0.36266200  0.08897800  1
  O  O17  1  0.68609300  0.68609300  0.67394600  1
  O  O18  1  0.31467600  0.31467600  0.32594700  1
  O  O19  1  0.89252800  0.89252800  0.46286300  1
  O  O20  1  0.10791300  0.10791300  0.53603500  1
  O  O21  1  0.00001600  0.00001600  0.00027300  1
  O  O22  1  0.85041200  0.85041200  0.70813800  1
  O  O23  1  0.14854200  0.14854200  0.29483300  1
  O  O24  1  0.77085400  0.77085400  0.18599200  1
  O  O25  1  0.22870300  0.22870300  0.81448800  1
  O  O26  1  0.93787400  0.93787400  0.22643700  1
  O  O27  1  0.06349100  0.06349100  0.77611200  1
