# generated using pymatgen
data_La2Ni7
_symmetry_space_group_name_H-M   'P 1'
_cell_length_a   5.02430632
_cell_length_b   5.02430632
_cell_length_c   24.59026100
_cell_angle_alpha   90.00000000
_cell_angle_beta   90.00000000
_cell_angle_gamma   120.00000419
_symmetry_Int_Tables_number   1
_chemical_formula_structural   La2Ni7
_chemical_formula_sum   'La8 Ni28'
_cell_volume   537.58354926
_cell_formula_units_Z   4
loop_
 _symmetry_equiv_pos_site_id
 _symmetry_equiv_pos_as_xyz
  1  'x, y, z'
loop_
 _atom_site_type_symbol
 _atom_site_label
 _atom_site_symmetry_multiplicity
 _atom_site_fract_x
 _atom_site_fract_y
 _atom_site_fract_z
 _atom_site_occupancy
  La  La0  1  0.33333300  0.66666700  0.32584900  1
  La  La1  1  0.66666700  0.33333300  0.82584900  1
  La  La2  1  0.66666700  0.33333300  0.67415100  1
  La  La3  1  0.33333300  0.66666700  0.17415100  1
  La  La4  1  0.33333300  0.66666700  0.46947800  1
  La  La5  1  0.66666700  0.33333300  0.96947800  1
  La  La6  1  0.66666700  0.33333300  0.53052200  1
  La  La7  1  0.33333300  0.66666700  0.03052200  1
  Ni  Ni8  1  0.83374000  0.16626000  0.41259900  1
  Ni  Ni9  1  0.83374000  0.66748000  0.41259900  1
  Ni  Ni10  1  0.33252000  0.16626000  0.41259900  1
  Ni  Ni11  1  0.66748000  0.83374000  0.91259900  1
  Ni  Ni12  1  0.16626000  0.33252000  0.58740100  1
  Ni  Ni13  1  0.16626000  0.83374000  0.91259900  1
  Ni  Ni14  1  0.16626000  0.33252000  0.91259900  1
  Ni  Ni15  1  0.83374000  0.16626000  0.08740100  1
  Ni  Ni16  1  0.00000000  0.00000000  0.00000000  1
  Ni  Ni17  1  0.00000000  0.00000000  0.50000000  1
  Ni  Ni18  1  0.00000000  0.00000000  0.16887700  1
  Ni  Ni19  1  0.00000000  0.00000000  0.66887700  1
  Ni  Ni20  1  0.00000000  0.00000000  0.83112300  1
  Ni  Ni21  1  0.00000000  0.00000000  0.33112300  1
  Ni  Ni22  1  0.33333300  0.66666700  0.83195000  1
  Ni  Ni23  1  0.66666700  0.33333300  0.33195000  1
  Ni  Ni24  1  0.66666700  0.33333300  0.16805000  1
  Ni  Ni25  1  0.33333300  0.66666700  0.66805000  1
  Ni  Ni26  1  0.83291400  0.66582900  0.25000000  1
  Ni  Ni27  1  0.16708600  0.83291400  0.75000000  1
  Ni  Ni28  1  0.66582900  0.83291400  0.75000000  1
  Ni  Ni29  1  0.33417100  0.16708600  0.25000000  1
  Ni  Ni30  1  0.83291400  0.16708600  0.25000000  1
  Ni  Ni31  1  0.16708600  0.33417100  0.75000000  1
  Ni  Ni32  1  0.83374000  0.66748000  0.08740100  1
  Ni  Ni33  1  0.16626000  0.83374000  0.58740100  1
  Ni  Ni34  1  0.66748000  0.83374000  0.58740100  1
  Ni  Ni35  1  0.33252000  0.16626000  0.08740100  1
