# generated using pymatgen
data_YbSbIr
_symmetry_space_group_name_H-M   'P 1'
_cell_length_a   4.59366400
_cell_length_b   7.26302900
_cell_length_c   7.77376900
_cell_angle_alpha   90.00000000
_cell_angle_beta   90.00000000
_cell_angle_gamma   90.00000000
_symmetry_Int_Tables_number   1
_chemical_formula_structural   YbSbIr
_chemical_formula_sum   'Yb4 Sb4 Ir4'
_cell_volume   259.36336697
_cell_formula_units_Z   4
loop_
 _symmetry_equiv_pos_site_id
 _symmetry_equiv_pos_as_xyz
  1  'x, y, z'
loop_
 _atom_site_type_symbol
 _atom_site_label
 _atom_site_symmetry_multiplicity
 _atom_site_fract_x
 _atom_site_fract_y
 _atom_site_fract_z
 _atom_site_occupancy
  Yb  Yb0  1  0.25000000  0.01798500  0.30584600  1
  Yb  Yb1  1  0.25000000  0.51798500  0.19415400  1
  Yb  Yb2  1  0.75000000  0.98201500  0.69415400  1
  Yb  Yb3  1  0.75000000  0.48201500  0.80584600  1
  Sb  Sb4  1  0.25000000  0.67887900  0.58252100  1
  Sb  Sb5  1  0.25000000  0.17887900  0.91747900  1
  Sb  Sb6  1  0.75000000  0.32112100  0.41747900  1
  Sb  Sb7  1  0.75000000  0.82112100  0.08252100  1
  Ir  Ir8  1  0.25000000  0.29877500  0.59441900  1
  Ir  Ir9  1  0.25000000  0.79877500  0.90558100  1
  Ir  Ir10  1  0.75000000  0.70122500  0.40558100  1
  Ir  Ir11  1  0.75000000  0.20122500  0.09441900  1
