# generated using pymatgen
data_As2O5
_symmetry_space_group_name_H-M   'P 1'
_cell_length_a   4.71591600
_cell_length_b   8.69093300
_cell_length_c   8.81563400
_cell_angle_alpha   90.00000000
_cell_angle_beta   90.00000000
_cell_angle_gamma   90.00000000
_symmetry_Int_Tables_number   1
_chemical_formula_structural   As2O5
_chemical_formula_sum   'As8 O20'
_cell_volume   361.31501850
_cell_formula_units_Z   4
loop_
 _symmetry_equiv_pos_site_id
 _symmetry_equiv_pos_as_xyz
  1  'x, y, z'
loop_
 _atom_site_type_symbol
 _atom_site_label
 _atom_site_symmetry_multiplicity
 _atom_site_fract_x
 _atom_site_fract_y
 _atom_site_fract_z
 _atom_site_occupancy
  As  As0  1  0.88096400  0.03289900  0.71575100  1
  As  As1  1  0.38096400  0.46710100  0.28424900  1
  As  As2  1  0.11903600  0.53289900  0.78424900  1
  As  As3  1  0.61903600  0.96710100  0.21575100  1
  As  As4  1  0.87630500  0.65320500  0.09764100  1
  As  As5  1  0.37630500  0.84679500  0.90235900  1
  As  As6  1  0.12369500  0.15320500  0.40235900  1
  As  As7  1  0.62369500  0.34679500  0.59764100  1
  O  O8  1  0.05091000  0.50448700  0.97633600  1
  O  O9  1  0.55091000  0.99551300  0.02366400  1
  O  O10  1  0.94909000  0.00448700  0.52366400  1
  O  O11  1  0.44909000  0.49551300  0.47633600  1
  O  O12  1  0.20614800  0.72469900  0.75222600  1
  O  O13  1  0.70614800  0.77530100  0.24777400  1
  O  O14  1  0.79385200  0.22469900  0.74777400  1
  O  O15  1  0.29385200  0.27530100  0.25222600  1
  O  O16  1  0.89757100  0.31521000  0.45375100  1
  O  O17  1  0.39757100  0.18479000  0.54624900  1
  O  O18  1  0.10242900  0.81521000  0.04624900  1
  O  O19  1  0.60242900  0.68479000  0.95375100  1
  O  O20  1  0.12862600  0.60653000  0.25903500  1
  O  O21  1  0.62862600  0.89347000  0.74096500  1
  O  O22  1  0.87137400  0.10653000  0.24096500  1
  O  O23  1  0.37137400  0.39347000  0.75903500  1
  O  O24  1  0.66804400  0.48020000  0.16491000  1
  O  O25  1  0.16804400  0.01980000  0.83509000  1
  O  O26  1  0.33195600  0.98020000  0.33509000  1
  O  O27  1  0.83195600  0.51980000  0.66491000  1
