# generated using pymatgen
data_LaMg2H7Pd
_symmetry_space_group_name_H-M   'P 1'
_cell_length_a   4.76628800
_cell_length_b   8.11108300
_cell_length_c   11.75360400
_cell_angle_alpha   90.00000000
_cell_angle_beta   90.00000000
_cell_angle_gamma   90.00000000
_symmetry_Int_Tables_number   1
_chemical_formula_structural   LaMg2H7Pd
_chemical_formula_sum   'La4 Mg8 H28 Pd4'
_cell_volume   454.39148121
_cell_formula_units_Z   4
loop_
 _symmetry_equiv_pos_site_id
 _symmetry_equiv_pos_as_xyz
  1  'x, y, z'
loop_
 _atom_site_type_symbol
 _atom_site_label
 _atom_site_symmetry_multiplicity
 _atom_site_fract_x
 _atom_site_fract_y
 _atom_site_fract_z
 _atom_site_occupancy
  La  La0  1  0.99886200  0.44921600  0.21927900  1
  La  La1  1  0.00113800  0.94921600  0.28072100  1
  La  La2  1  0.49886200  0.05078400  0.78072100  1
  La  La3  1  0.50113800  0.55078400  0.71927900  1
  Mg  Mg4  1  0.98425800  0.34121200  0.89932700  1
  Mg  Mg5  1  0.01574200  0.84121200  0.60067300  1
  Mg  Mg6  1  0.48425800  0.15878800  0.10067300  1
  Mg  Mg7  1  0.51574200  0.65878800  0.39932700  1
  Mg  Mg8  1  0.99780200  0.72630400  0.89834300  1
  Mg  Mg9  1  0.00219800  0.22630400  0.60165700  1
  Mg  Mg10  1  0.49780200  0.77369600  0.10165700  1
  Mg  Mg11  1  0.50219800  0.27369600  0.39834300  1
  H  H12  1  0.53426900  0.40002400  0.13070400  1
  H  H13  1  0.46573100  0.90002400  0.36929600  1
  H  H14  1  0.03426900  0.09997600  0.86929600  1
  H  H15  1  0.96573100  0.59997600  0.63070400  1
  H  H16  1  0.11349200  0.51503300  0.01767700  1
  H  H17  1  0.88650800  0.01503300  0.48232300  1
  H  H18  1  0.61349200  0.98496700  0.98232300  1
  H  H19  1  0.38650800  0.48496700  0.51767700  1
  H  H20  1  0.59693200  0.65932600  0.94715400  1
  H  H21  1  0.40306800  0.15932600  0.55284600  1
  H  H22  1  0.09693200  0.84067400  0.05284600  1
  H  H23  1  0.90306800  0.34067400  0.44715400  1
  H  H24  1  0.53167500  0.32496500  0.88959200  1
  H  H25  1  0.46832500  0.82496500  0.61040800  1
  H  H26  1  0.03167500  0.17503500  0.11040800  1
  H  H27  1  0.96832500  0.67503500  0.38959200  1
  H  H28  1  0.27601200  0.78639400  0.78697800  1
  H  H29  1  0.72398800  0.28639400  0.71302200  1
  H  H30  1  0.77601200  0.71360600  0.21302200  1
  H  H31  1  0.22398800  0.21360600  0.28697800  1
  H  H32  1  0.97707100  0.53147700  0.80063300  1
  H  H33  1  0.02292900  0.03147700  0.69936700  1
  H  H34  1  0.47707100  0.96852300  0.19936700  1
  H  H35  1  0.52292900  0.46852300  0.30063300  1
  H  H36  1  0.75264900  0.79392500  0.76696100  1
  H  H37  1  0.24735100  0.29392500  0.73303900  1
  H  H38  1  0.25264900  0.70607500  0.23303900  1
  H  H39  1  0.74735100  0.20607500  0.26696100  1
  Pd  Pd40  1  0.47003100  0.47226000  0.99471100  1
  Pd  Pd41  1  0.52996900  0.97226000  0.50528900  1
  Pd  Pd42  1  0.97003100  0.02774000  0.00528900  1
  Pd  Pd43  1  0.02996900  0.52774000  0.49471100  1
