# generated using pymatgen
data_Na5Mn2P2(CO7)2
_symmetry_space_group_name_H-M   'P 1'
_cell_length_a   6.72119900
_cell_length_b   9.05078200
_cell_length_c   15.77851718
_cell_angle_alpha   89.28453026
_cell_angle_beta   90.00000000
_cell_angle_gamma   90.00000000
_symmetry_Int_Tables_number   1
_chemical_formula_structural   Na5Mn2P2(CO7)2
_chemical_formula_sum   'Na15 Mn6 P6 C6 O42'
_cell_volume   959.76560981
_cell_formula_units_Z   3
loop_
 _symmetry_equiv_pos_site_id
 _symmetry_equiv_pos_as_xyz
  1  'x, y, z'
loop_
 _atom_site_type_symbol
 _atom_site_label
 _atom_site_symmetry_multiplicity
 _atom_site_fract_x
 _atom_site_fract_y
 _atom_site_fract_z
 _atom_site_occupancy
  Na  Na0  1  0.50000000  0.08197200  0.59011800  1
  Na  Na1  1  0.25929000  0.25734500  0.75349200  1
  Na  Na2  1  0.74071000  0.25734500  0.75349200  1
  Na  Na3  1  0.26046700  0.25670900  0.41037400  1
  Na  Na4  1  0.73953300  0.25670900  0.41037400  1
  Na  Na5  1  0.25374600  0.23089300  0.08035600  1
  Na  Na6  1  0.74625400  0.23089300  0.08035600  1
  Na  Na7  1  0.75143900  0.76169300  0.92216300  1
  Na  Na8  1  0.24856100  0.76169300  0.92216300  1
  Na  Na9  1  0.75223600  0.73834100  0.58541200  1
  Na  Na10  1  0.24776400  0.73834100  0.58541200  1
  Na  Na11  1  0.75459600  0.75740600  0.24680100  1
  Na  Na12  1  0.24540400  0.75740600  0.24680100  1
  Na  Na13  1  0.00000000  0.91709700  0.74672700  1
  Na  Na14  1  0.00000000  0.92170100  0.41088100  1
  Mn  Mn15  1  0.00000000  0.35842500  0.92888700  1
  Mn  Mn16  1  0.00000000  0.35624900  0.59211400  1
  Mn  Mn17  1  0.00000000  0.36238900  0.25767100  1
  Mn  Mn18  1  0.50000000  0.64112500  0.74300700  1
  Mn  Mn19  1  0.50000000  0.64550100  0.40530600  1
  Mn  Mn20  1  0.50000000  0.63927500  0.07223900  1
  P  P21  1  0.50000000  0.41850400  0.90508500  1
  P  P22  1  0.50000000  0.41493200  0.56666500  1
  P  P23  1  0.50000000  0.42681600  0.23255900  1
  P  P24  1  0.00000000  0.58074300  0.76842500  1
  P  P25  1  0.00000000  0.58648600  0.43062400  1
  P  P26  1  0.00000000  0.57501300  0.09838800  1
  C  C27  1  0.00000000  0.07445200  0.90500800  1
  C  C28  1  0.00000000  0.05724500  0.57555100  1
  C  C29  1  0.00000000  0.07525100  0.24675400  1
  C  C30  1  0.50000000  0.93541100  0.75213600  1
  C  C31  1  0.50000000  0.93373700  0.42787200  1
  C  C32  1  0.50000000  0.91748900  0.09037100  1
  O  O33  1  0.50000000  0.07746500  0.75095200  1
  O  O34  1  0.50000000  0.07508700  0.43430900  1
  O  O35  1  0.50000000  0.05557000  0.08948000  1
  O  O36  1  0.00000000  0.14522600  0.97710100  1
  O  O37  1  0.00000000  0.11905300  0.64974200  1
  O  O38  1  0.00000000  0.15704500  0.31654300  1
  O  O39  1  0.00000000  0.15703900  0.83681300  1
  O  O40  1  0.00000000  0.14070000  0.50750800  1
  O  O41  1  0.00000000  0.14756300  0.17627900  1
  O  O42  1  0.31099400  0.33173600  0.93315000  1
  O  O43  1  0.68900600  0.33173600  0.93315000  1
  O  O44  1  0.31552300  0.32011500  0.59068700  1
  O  O45  1  0.68447700  0.32011500  0.59068700  1
  O  O46  1  0.31222400  0.33683200  0.25764900  1
  O  O47  1  0.68777600  0.33683200  0.25764900  1
  O  O48  1  0.50000000  0.43467200  0.80637800  1
  O  O49  1  0.00000000  0.42961100  0.72398800  1
  O  O50  1  0.50000000  0.44285900  0.46771300  1
  O  O51  1  0.00000000  0.43265900  0.38854900  1
  O  O52  1  0.50000000  0.44841300  0.13260300  1
  O  O53  1  0.00000000  0.41813500  0.06041800  1
  O  O54  1  0.50000000  0.57575900  0.94438700  1
  O  O55  1  0.00000000  0.55345700  0.86790300  1
  O  O56  1  0.50000000  0.56577800  0.61151800  1
  O  O57  1  0.00000000  0.56606200  0.52897500  1
  O  O58  1  0.50000000  0.58050100  0.27408700  1
  O  O59  1  0.00000000  0.55769200  0.19872300  1
  O  O60  1  0.81640500  0.67649700  0.74500500  1
  O  O61  1  0.18359500  0.67649700  0.74500500  1
  O  O62  1  0.81540900  0.68010500  0.40350700  1
  O  O63  1  0.18459100  0.68010500  0.40350700  1
  O  O64  1  0.81269200  0.66378800  0.07239800  1
  O  O65  1  0.18730800  0.66378800  0.07239800  1
  O  O66  1  0.50000000  0.85572400  0.82096400  1
  O  O67  1  0.50000000  0.84904100  0.49566700  1
  O  O68  1  0.50000000  0.83289900  0.15760000  1
  O  O69  1  0.50000000  0.86531900  0.67917900  1
  O  O70  1  0.50000000  0.86795400  0.35476100  1
  O  O71  1  0.50000000  0.84025000  0.01899500  1
  O  O72  1  0.00000000  0.93381500  0.90149800  1
  O  O73  1  0.00000000  0.91450800  0.56940200  1
  O  O74  1  0.00000000  0.93498400  0.25577900  1
