# generated using pymatgen
data_LiVAsO5
_symmetry_space_group_name_H-M   'P 1'
_cell_length_a   6.58791948
_cell_length_b   7.63337043
_cell_length_c   7.58674137
_cell_angle_alpha   90.00000000
_cell_angle_beta   90.00000000
_cell_angle_gamma   90.00000000
_symmetry_Int_Tables_number   1
_chemical_formula_structural   LiVAsO5
_chemical_formula_sum   'Li4 V4 As4 O20'
_cell_volume   381.52227575
_cell_formula_units_Z   4
loop_
 _symmetry_equiv_pos_site_id
 _symmetry_equiv_pos_as_xyz
  1  'x, y, z'
loop_
 _atom_site_type_symbol
 _atom_site_label
 _atom_site_symmetry_multiplicity
 _atom_site_fract_x
 _atom_site_fract_y
 _atom_site_fract_z
 _atom_site_occupancy
  Li  Li0  1  0.00000000  0.00000000  0.00000000  1
  Li  Li1  1  0.49999991  0.00000000  0.00000000  1
  Li  Li2  1  0.00000000  0.49999986  0.50000016  1
  Li  Li3  1  0.49999991  0.49999986  0.50000016  1
  O  O4  1  0.74999987  0.00272494  0.81396692  1
  O  O5  1  0.95436953  0.73574989  0.62796172  1
  O  O6  1  0.45436961  0.26424982  0.37203860  1
  O  O7  1  0.04563030  0.23575004  0.87203876  1
  O  O8  1  0.54563021  0.76424968  0.12796156  1
  O  O9  1  0.04563030  0.26424982  0.37203860  1
  O  O10  1  0.54563021  0.73574989  0.62796172  1
  O  O11  1  0.95436953  0.76424968  0.12796156  1
  O  O12  1  0.74999987  0.17202655  0.11417496  1
  O  O13  1  0.24999996  0.82797449  0.88582536  1
  O  O14  1  0.24999996  0.67202640  0.38582520  1
  O  O15  1  0.74999987  0.32797331  0.61417513  1
  O  O16  1  0.45436961  0.23575004  0.87203876  1
  O  O17  1  0.24999996  0.99727609  0.18603340  1
  O  O18  1  0.24999996  0.00609743  0.56479043  1
  O  O19  1  0.74999987  0.49727624  0.31396676  1
  O  O20  1  0.24999996  0.49390243  0.06479027  1
  O  O21  1  0.74999987  0.50609729  0.93520875  1
  O  O22  1  0.74999987  0.99390228  0.43520859  1
  O  O23  1  0.24999996  0.50272480  0.68603356  1
  V  V24  1  0.74999987  0.22621155  0.33136981  1
  V  V25  1  0.24999996  0.72621141  0.16862905  1
  V  V26  1  0.74999987  0.27378830  0.83136997  1
  V  V27  1  0.24999996  0.77378816  0.66862921  1
  As  As28  1  0.74999987  0.87549021  0.62500871  1
  As  As29  1  0.74999987  0.62450937  0.12500855  1
  As  As30  1  0.24999996  0.37549035  0.87499177  1
  As  As31  1  0.24999996  0.12450951  0.37499161  1
