# generated using pymatgen
data_Eu(SeO4)2
_symmetry_space_group_name_H-M   'P 1'
_cell_length_a   9.54724433
_cell_length_b   10.27500645
_cell_length_c   14.05531048
_cell_angle_alpha   90.00000000
_cell_angle_beta   90.00000000
_cell_angle_gamma   90.00000000
_symmetry_Int_Tables_number   1
_chemical_formula_structural   Eu(SeO4)2
_chemical_formula_sum   'Eu8 Se16 O64'
_cell_volume   1378.79780629
_cell_formula_units_Z   8
loop_
 _symmetry_equiv_pos_site_id
 _symmetry_equiv_pos_as_xyz
  1  'x, y, z'
loop_
 _atom_site_type_symbol
 _atom_site_label
 _atom_site_symmetry_multiplicity
 _atom_site_fract_x
 _atom_site_fract_y
 _atom_site_fract_z
 _atom_site_occupancy
  Eu  Eu0  1  0.27904655  0.04718567  0.89487223  1
  Eu  Eu1  1  0.77904655  0.95281433  0.60512777  1
  Eu  Eu2  1  0.72095345  0.45281433  0.39487223  1
  Eu  Eu3  1  0.22095345  0.54718567  0.10512777  1
  Eu  Eu4  1  0.72095345  0.95281433  0.10512777  1
  Eu  Eu5  1  0.22095345  0.04718567  0.39487223  1
  Eu  Eu6  1  0.27904655  0.54718567  0.60512777  1
  Eu  Eu7  1  0.77904655  0.45281433  0.89487223  1
  Se  Se8  1  0.68420992  0.59945890  0.64994962  1
  Se  Se9  1  0.18420992  0.40054110  0.85005038  1
  Se  Se10  1  0.31579008  0.90054110  0.14994962  1
  Se  Se11  1  0.81579008  0.09945890  0.35005038  1
  Se  Se12  1  0.31579008  0.40054110  0.35005038  1
  Se  Se13  1  0.81579008  0.59945890  0.14994962  1
  Se  Se14  1  0.68420992  0.09945890  0.85005038  1
  Se  Se15  1  0.18420992  0.90054110  0.64994962  1
  Se  Se16  1  0.00019514  0.27986198  0.56484705  1
  Se  Se17  1  0.50019514  0.72013802  0.93515295  1
  Se  Se18  1  0.99980486  0.22013802  0.06484705  1
  Se  Se19  1  0.49980486  0.77986198  0.43515295  1
  Se  Se20  1  0.99980486  0.72013802  0.43515295  1
  Se  Se21  1  0.49980486  0.27986198  0.06484705  1
  Se  Se22  1  0.00019514  0.77986198  0.93515295  1
  Se  Se23  1  0.50019514  0.22013802  0.56484705  1
  O  O24  1  0.75836866  0.49407855  0.72379069  1
  O  O25  1  0.25836866  0.50592145  0.77620931  1
  O  O26  1  0.24163134  0.00592145  0.22379069  1
  O  O27  1  0.74163134  0.99407855  0.27620931  1
  O  O28  1  0.24163134  0.50592145  0.27620931  1
  O  O29  1  0.74163134  0.49407855  0.22379069  1
  O  O30  1  0.75836866  0.99407855  0.77620931  1
  O  O31  1  0.25836866  0.00592145  0.72379069  1
  O  O32  1  0.73641796  0.74852162  0.68074804  1
  O  O33  1  0.23641796  0.25147838  0.81925196  1
  O  O34  1  0.26358204  0.75147838  0.18074804  1
  O  O35  1  0.76358204  0.24852162  0.31925196  1
  O  O36  1  0.26358204  0.25147838  0.31925196  1
  O  O37  1  0.76358204  0.74852162  0.18074804  1
  O  O38  1  0.73641796  0.24852162  0.81925196  1
  O  O39  1  0.23641796  0.75147838  0.68074804  1
  O  O40  1  0.51090440  0.58426544  0.65695504  1
  O  O41  1  0.01090440  0.41573456  0.84304496  1
  O  O42  1  0.48909560  0.91573456  0.15695504  1
  O  O43  1  0.98909560  0.08426544  0.34304496  1
  O  O44  1  0.48909560  0.41573456  0.34304496  1
  O  O45  1  0.98909560  0.58426544  0.15695504  1
  O  O46  1  0.51090440  0.08426544  0.84304496  1
  O  O47  1  0.01090440  0.91573456  0.65695504  1
  O  O48  1  0.73652999  0.57475637  0.53846592  1
  O  O49  1  0.23652999  0.42524363  0.96153408  1
  O  O50  1  0.26347001  0.92524363  0.03846592  1
  O  O51  1  0.76347001  0.07475637  0.46153408  1
  O  O52  1  0.26347001  0.42524363  0.46153408  1
  O  O53  1  0.76347001  0.57475637  0.03846592  1
  O  O54  1  0.73652999  0.07475637  0.96153408  1
  O  O55  1  0.23652999  0.92524363  0.53846592  1
  O  O56  1  0.08635785  0.39215197  0.62723884  1
  O  O57  1  0.58635785  0.60784803  0.87276116  1
  O  O58  1  0.91364215  0.10784803  0.12723884  1
  O  O59  1  0.41364215  0.89215197  0.37276116  1
  O  O60  1  0.91364215  0.60784803  0.37276116  1
  O  O61  1  0.41364215  0.39215197  0.12723884  1
  O  O62  1  0.08635785  0.89215197  0.87276116  1
  O  O63  1  0.58635785  0.10784803  0.62723884  1
  O  O64  1  0.92002897  0.35163041  0.47347595  1
  O  O65  1  0.42002897  0.64836959  0.02652405  1
  O  O66  1  0.07997103  0.14836959  0.97347595  1
  O  O67  1  0.57997103  0.85163041  0.52652405  1
  O  O68  1  0.07997103  0.64836959  0.52652405  1
  O  O69  1  0.57997103  0.35163041  0.97347595  1
  O  O70  1  0.92002897  0.85163041  0.02652405  1
  O  O71  1  0.42002897  0.14836959  0.47347595  1
  O  O72  1  0.89149184  0.19826981  0.63570662  1
  O  O73  1  0.39149184  0.80173019  0.86429338  1
  O  O74  1  0.10850816  0.30173019  0.13570662  1
  O  O75  1  0.60850816  0.69826981  0.36429338  1
  O  O76  1  0.10850816  0.80173019  0.36429338  1
  O  O77  1  0.60850816  0.19826981  0.13570662  1
  O  O78  1  0.89149184  0.69826981  0.86429338  1
  O  O79  1  0.39149184  0.30173019  0.63570662  1
  O  O80  1  0.11368232  0.17004926  0.52256773  1
  O  O81  1  0.61368232  0.82995074  0.97743227  1
  O  O82  1  0.88631768  0.32995074  0.02256773  1
  O  O83  1  0.38631768  0.67004926  0.47743227  1
  O  O84  1  0.88631768  0.82995074  0.47743227  1
  O  O85  1  0.38631768  0.17004926  0.02256773  1
  O  O86  1  0.11368232  0.67004926  0.97743227  1
  O  O87  1  0.61368232  0.32995074  0.52256773  1
