# generated using pymatgen
data_Ca5VN5
_symmetry_space_group_name_H-M   'P 1'
_cell_length_a   6.04191972
_cell_length_b   6.80927573
_cell_length_c   16.65470935
_cell_angle_alpha   90.00000000
_cell_angle_beta   90.00000000
_cell_angle_gamma   90.00000000
_symmetry_Int_Tables_number   1
_chemical_formula_structural   Ca5VN5
_chemical_formula_sum   'Ca20 V4 N20'
_cell_volume   685.19301807
_cell_formula_units_Z   4
loop_
 _symmetry_equiv_pos_site_id
 _symmetry_equiv_pos_as_xyz
  1  'x, y, z'
loop_
 _atom_site_type_symbol
 _atom_site_label
 _atom_site_symmetry_multiplicity
 _atom_site_fract_x
 _atom_site_fract_y
 _atom_site_fract_z
 _atom_site_occupancy
  Ca  Ca0  1  0.70984551  0.99242061  0.92538695  1
  Ca  Ca1  1  0.29015449  0.49242061  0.07461305  1
  Ca  Ca2  1  0.70984551  0.00757939  0.57461305  1
  Ca  Ca3  1  0.29015449  0.50757939  0.42538695  1
  Ca  Ca4  1  0.29015449  0.00757939  0.07461305  1
  Ca  Ca5  1  0.70984551  0.50757939  0.92538695  1
  Ca  Ca6  1  0.29015449  0.99242061  0.42538695  1
  Ca  Ca7  1  0.70984551  0.49242061  0.57461305  1
  Ca  Ca8  1  0.81033704  0.25000000  0.08197268  1
  Ca  Ca9  1  0.18966296  0.75000000  0.91802732  1
  Ca  Ca10  1  0.81033704  0.75000000  0.41802732  1
  Ca  Ca11  1  0.18966296  0.25000000  0.58197268  1
  Ca  Ca12  1  0.48622347  0.25000000  0.23698521  1
  Ca  Ca13  1  0.51377653  0.75000000  0.76301479  1
  Ca  Ca14  1  0.48622347  0.75000000  0.26301479  1
  Ca  Ca15  1  0.51377653  0.25000000  0.73698521  1
  Ca  Ca16  1  0.95309294  0.50000000  0.25000000  1
  Ca  Ca17  1  0.04690706  0.00000000  0.75000000  1
  Ca  Ca18  1  0.04690706  0.50000000  0.75000000  1
  Ca  Ca19  1  0.95309294  0.00000000  0.25000000  1
  V  V20  1  0.71197580  0.25000000  0.40676657  1
  V  V21  1  0.28802420  0.75000000  0.59323343  1
  V  V22  1  0.71197580  0.75000000  0.09323343  1
  V  V23  1  0.28802420  0.25000000  0.90676657  1
  N  N24  1  0.63898142  0.46895586  0.34528930  1
  N  N25  1  0.36101858  0.96895586  0.65471070  1
  N  N26  1  0.63898142  0.53104414  0.15471070  1
  N  N27  1  0.36101858  0.03104414  0.84528930  1
  N  N28  1  0.36101858  0.53104414  0.65471070  1
  N  N29  1  0.63898142  0.03104414  0.34528930  1
  N  N30  1  0.36101858  0.46895586  0.84528930  1
  N  N31  1  0.63898142  0.96895586  0.15471070  1
  N  N32  1  0.99262698  0.25000000  0.44791044  1
  N  N33  1  0.00737302  0.75000000  0.55208956  1
  N  N34  1  0.99262698  0.75000000  0.05208956  1
  N  N35  1  0.00737302  0.25000000  0.94791044  1
  N  N36  1  0.51717526  0.25000000  0.48995105  1
  N  N37  1  0.48282474  0.75000000  0.51004895  1
  N  N38  1  0.51717526  0.75000000  0.01004895  1
  N  N39  1  0.48282474  0.25000000  0.98995105  1
  N  N40  1  0.86610655  0.25000000  0.67490396  1
  N  N41  1  0.13389345  0.75000000  0.32509604  1
  N  N42  1  0.86610655  0.75000000  0.82509604  1
  N  N43  1  0.13389345  0.25000000  0.17490396  1
