# generated using pymatgen
data_Zr3AlFe8
_symmetry_space_group_name_H-M   'P 1'
_cell_length_a   8.52875396
_cell_length_b   8.52875396
_cell_length_c   8.52875370
_cell_angle_alpha   33.54265830
_cell_angle_beta   33.54265830
_cell_angle_gamma   33.54265646
_symmetry_Int_Tables_number   1
_chemical_formula_structural   Zr3AlFe8
_chemical_formula_sum   'Zr3 Al1 Fe8'
_cell_volume   168.71140576
_cell_formula_units_Z   1
loop_
 _symmetry_equiv_pos_site_id
 _symmetry_equiv_pos_as_xyz
  1  'x, y, z'
loop_
 _atom_site_type_symbol
 _atom_site_label
 _atom_site_symmetry_multiplicity
 _atom_site_fract_x
 _atom_site_fract_y
 _atom_site_fract_z
 _atom_site_occupancy
  Zr  Zr0  1  0.62453100  0.62453100  0.62453100  1
  Zr  Zr1  1  0.00378900  0.00378900  0.00378900  1
  Zr  Zr2  1  0.49690100  0.49690100  0.49690100  1
  Al  Al3  1  0.12557900  0.12557900  0.12557900  1
  Fe  Fe4  1  0.56385900  0.06319500  0.56385900  1
  Fe  Fe5  1  0.06243400  0.55860900  0.06243400  1
  Fe  Fe6  1  0.06319500  0.56385900  0.56385900  1
  Fe  Fe7  1  0.55860900  0.06243400  0.06243400  1
  Fe  Fe8  1  0.81230300  0.81230300  0.81230300  1
  Fe  Fe9  1  0.31250700  0.31250700  0.31250700  1
  Fe  Fe10  1  0.56385900  0.56385900  0.06319500  1
  Fe  Fe11  1  0.06243400  0.06243400  0.55860900  1
