# generated using pymatgen
data_SmSi3Ni
_symmetry_space_group_name_H-M   'P 1'
_cell_length_a   10.78677635
_cell_length_b   10.78677635
_cell_length_c   4.01434600
_cell_angle_alpha   90.00000000
_cell_angle_beta   90.00000000
_cell_angle_gamma   158.75783830
_symmetry_Int_Tables_number   1
_chemical_formula_structural   SmSi3Ni
_chemical_formula_sum   'Sm2 Si6 Ni2'
_cell_volume   169.23068407
_cell_formula_units_Z   2
loop_
 _symmetry_equiv_pos_site_id
 _symmetry_equiv_pos_as_xyz
  1  'x, y, z'
loop_
 _atom_site_type_symbol
 _atom_site_label
 _atom_site_symmetry_multiplicity
 _atom_site_fract_x
 _atom_site_fract_y
 _atom_site_fract_z
 _atom_site_occupancy
  Sm  Sm0  1  0.66852000  0.33148000  0.50000000  1
  Sm  Sm1  1  0.33148000  0.66852000  0.50000000  1
  Si  Si2  1  0.55559200  0.44440800  0.00000000  1
  Si  Si3  1  0.44440800  0.55559200  0.00000000  1
  Si  Si4  1  0.78238900  0.21761100  0.00000000  1
  Si  Si5  1  0.21761100  0.78238900  0.00000000  1
  Si  Si6  1  0.05562400  0.94437600  0.50000000  1
  Si  Si7  1  0.94437600  0.05562400  0.50000000  1
  Ni  Ni8  1  0.89108400  0.10891600  0.00000000  1
  Ni  Ni9  1  0.10891600  0.89108400  0.00000000  1
