# generated using pymatgen
data_SrFe3(P2O7)2
_symmetry_space_group_name_H-M   'P 1'
_cell_length_a   7.65758973
_cell_length_b   7.87450317
_cell_length_c   9.71010664
_cell_angle_alpha   90.00000000
_cell_angle_beta   112.25251919
_cell_angle_gamma   90.00000000
_symmetry_Int_Tables_number   1
_chemical_formula_structural   SrFe3(P2O7)2
_chemical_formula_sum   'Sr2 Fe6 P8 O28'
_cell_volume   541.90963521
_cell_formula_units_Z   2
loop_
 _symmetry_equiv_pos_site_id
 _symmetry_equiv_pos_as_xyz
  1  'x, y, z'
loop_
 _atom_site_type_symbol
 _atom_site_label
 _atom_site_symmetry_multiplicity
 _atom_site_fract_x
 _atom_site_fract_y
 _atom_site_fract_z
 _atom_site_occupancy
  O  O0  1  0.84054723  0.62676641  0.61021010  1
  O  O1  1  0.15945260  0.12676637  0.88978996  1
  O  O2  1  0.15945279  0.37323367  0.38978993  1
  O  O3  1  0.84054742  0.87323370  0.11021007  1
  O  O4  1  0.27527171  0.60982927  0.63390161  1
  O  O5  1  0.72472811  0.10982923  0.86609845  1
  O  O6  1  0.72472831  0.39017081  0.36609841  1
  O  O7  1  0.27527190  0.89016956  0.13390158  1
  O  O8  1  0.62009052  0.17997991  0.58982770  1
  O  O9  1  0.37990930  0.67997994  0.91017236  1
  O  O10  1  0.37990950  0.82002017  0.41017232  1
  O  O11  1  0.62009071  0.32002013  0.08982767  1
  O  O12  1  0.68469804  0.87214350  0.67758527  1
  O  O13  1  0.31530179  0.37214347  0.82241377  1
  O  O14  1  0.31530198  0.12785657  0.32241476  1
  O  O15  1  0.68469823  0.62785661  0.17758524  1
  O  O16  1  0.40460309  0.48954982  0.19419800  1
  O  O17  1  0.59539712  0.98954986  0.30580200  1
  O  O18  1  0.59539692  0.51045026  0.80580203  1
  O  O19  1  0.40460290  0.01045022  0.69419803  1
  O  O20  1  0.00055931  0.21357115  0.13923232  1
  O  O21  1  0.99944090  0.71357119  0.36076768  1
  O  O22  1  0.97205609  0.92149144  0.61310509  1
  O  O23  1  0.00055911  0.28642888  0.63923235  1
  O  O24  1  0.97205628  0.57850738  0.11310506  1
  O  O25  1  0.02794393  0.07850863  0.38689494  1
  O  O26  1  0.02794373  0.42149141  0.88689497  1
  O  O27  1  0.99944071  0.78642892  0.86076771  1
  P  P28  1  0.60384028  0.05463460  0.70356475  1
  P  P29  1  0.39615955  0.55463464  0.79643531  1
  P  P30  1  0.39615974  0.94536547  0.29643528  1
  P  P31  1  0.60384047  0.44536544  0.20356472  1
  P  P32  1  0.88748982  0.79673338  0.69218608  1
  P  P33  1  0.11251001  0.29673335  0.80781398  1
  P  P34  1  0.88749001  0.70326673  0.19218605  1
  P  P35  1  0.11251020  0.20326669  0.30781395  1
  Fe  Fe36  1  0.18872729  0.62434669  0.02651815  1
  Fe  Fe37  1  0.00000000  0.00000000  0.00000000  1
  Fe  Fe38  1  0.18872709  0.87565342  0.52651818  1
  Fe  Fe39  1  0.81127273  0.37565338  0.97348188  1
  Fe  Fe40  1  0.81127292  0.12434665  0.47348184  1
  Fe  Fe41  1  0.99999981  0.50000004  0.50000003  1
  Sr  Sr42  1  0.50000001  0.50000004  0.50000001  1
  Sr  Sr43  1  0.50000020  0.00000000  0.99999998  1
