# generated using pymatgen
data_Ho5(Si5Ir2)2
_symmetry_space_group_name_H-M   'P 1'
_cell_length_a   12.61772300
_cell_length_b   12.61772300
_cell_length_c   4.26012800
_cell_angle_alpha   90.00000000
_cell_angle_beta   90.00000000
_cell_angle_gamma   90.00000000
_symmetry_Int_Tables_number   1
_chemical_formula_structural   Ho5(Si5Ir2)2
_chemical_formula_sum   'Ho10 Si20 Ir8'
_cell_volume   678.24191607
_cell_formula_units_Z   2
loop_
 _symmetry_equiv_pos_site_id
 _symmetry_equiv_pos_as_xyz
  1  'x, y, z'
loop_
 _atom_site_type_symbol
 _atom_site_label
 _atom_site_symmetry_multiplicity
 _atom_site_fract_x
 _atom_site_fract_y
 _atom_site_fract_z
 _atom_site_occupancy
  Ho  Ho0  1  0.50000000  0.50000000  0.00000000  1
  Ho  Ho1  1  0.00000000  0.00000000  0.00000000  1
  Ho  Ho2  1  0.67552200  0.17552200  0.50000000  1
  Ho  Ho3  1  0.32447800  0.82447800  0.50000000  1
  Ho  Ho4  1  0.17552200  0.32447800  0.50000000  1
  Ho  Ho5  1  0.82447800  0.67552200  0.50000000  1
  Ho  Ho6  1  0.88390200  0.38390200  0.50000000  1
  Ho  Ho7  1  0.11609800  0.61609800  0.50000000  1
  Ho  Ho8  1  0.38390200  0.11609800  0.50000000  1
  Ho  Ho9  1  0.61609800  0.88390200  0.50000000  1
  Si  Si10  1  0.56568300  0.06568300  0.00000000  1
  Si  Si11  1  0.43431700  0.93431700  0.00000000  1
  Si  Si12  1  0.06568300  0.43431700  0.00000000  1
  Si  Si13  1  0.93431700  0.56568300  0.00000000  1
  Si  Si14  1  0.66380300  0.70070200  0.00000000  1
  Si  Si15  1  0.33619700  0.29929800  0.00000000  1
  Si  Si16  1  0.16380300  0.79929800  0.00000000  1
  Si  Si17  1  0.83619700  0.20070200  0.00000000  1
  Si  Si18  1  0.29929800  0.66380300  0.00000000  1
  Si  Si19  1  0.70070200  0.33619700  0.00000000  1
  Si  Si20  1  0.20070200  0.16380300  0.00000000  1
  Si  Si21  1  0.79929800  0.83619700  0.00000000  1
  Si  Si22  1  0.65651200  0.50349300  0.50000000  1
  Si  Si23  1  0.34348800  0.49650700  0.50000000  1
  Si  Si24  1  0.15651200  0.99650700  0.50000000  1
  Si  Si25  1  0.84348800  0.00349300  0.50000000  1
  Si  Si26  1  0.49650700  0.65651200  0.50000000  1
  Si  Si27  1  0.50349300  0.34348800  0.50000000  1
  Si  Si28  1  0.00349300  0.15651200  0.50000000  1
  Si  Si29  1  0.99650700  0.84348800  0.50000000  1
  Ir  Ir30  1  0.74570200  0.52044900  0.00000000  1
  Ir  Ir31  1  0.25429800  0.47955100  0.00000000  1
  Ir  Ir32  1  0.24570200  0.97955100  0.00000000  1
  Ir  Ir33  1  0.75429800  0.02044900  0.00000000  1
  Ir  Ir34  1  0.47955100  0.74570200  0.00000000  1
  Ir  Ir35  1  0.52044900  0.25429800  0.00000000  1
  Ir  Ir36  1  0.02044900  0.24570200  0.00000000  1
  Ir  Ir37  1  0.97955100  0.75429800  0.00000000  1
