# generated using pymatgen
data_DyYFe4
_symmetry_space_group_name_H-M   'P 1'
_cell_length_a   5.16011881
_cell_length_b   5.16011881
_cell_length_c   5.16011881
_cell_angle_alpha   90.00000000
_cell_angle_beta   60.00000000
_cell_angle_gamma   120.00000000
_symmetry_Int_Tables_number   1
_chemical_formula_structural   DyYFe4
_chemical_formula_sum   'Dy1 Y1 Fe4'
_cell_volume   97.15476487
_cell_formula_units_Z   1
loop_
 _symmetry_equiv_pos_site_id
 _symmetry_equiv_pos_as_xyz
  1  'x, y, z'
loop_
 _atom_site_type_symbol
 _atom_site_label
 _atom_site_symmetry_multiplicity
 _atom_site_fract_x
 _atom_site_fract_y
 _atom_site_fract_z
 _atom_site_occupancy
  Dy  Dy0  1  0.50000000  0.75000000  0.75000000  1
  Y  Y1  1  0.00000000  0.00000000  0.00000000  1
  Fe  Fe2  1  0.75030300  0.37515200  0.87454500  1
  Fe  Fe3  1  0.24969700  0.37515200  0.37515200  1
  Fe  Fe4  1  0.24969700  0.87454500  0.37515200  1
  Fe  Fe5  1  0.75030300  0.37515200  0.37515200  1
