# generated using pymatgen
data_Rb5(FeO2)3
_symmetry_space_group_name_H-M   'P 1'
_cell_length_a   9.80638383
_cell_length_b   9.80638383
_cell_length_c   9.80638383
_cell_angle_alpha   126.47699488
_cell_angle_beta   126.47699488
_cell_angle_gamma   79.10557145
_symmetry_Int_Tables_number   1
_chemical_formula_structural   Rb5(FeO2)3
_chemical_formula_sum   'Rb10 Fe6 O12'
_cell_volume   589.68959316
_cell_formula_units_Z   2
loop_
 _symmetry_equiv_pos_site_id
 _symmetry_equiv_pos_as_xyz
  1  'x, y, z'
loop_
 _atom_site_type_symbol
 _atom_site_label
 _atom_site_symmetry_multiplicity
 _atom_site_fract_x
 _atom_site_fract_y
 _atom_site_fract_z
 _atom_site_occupancy
  Rb  Rb0  1  0.00000000  0.00000000  0.00000000  1
  Rb  Rb1  1  0.75000000  0.25000000  0.50000000  1
  Rb  Rb2  1  0.24335600  0.24335600  0.00000000  1
  Rb  Rb3  1  0.50664400  0.00664400  0.50000000  1
  Rb  Rb4  1  0.75664400  0.75664400  0.00000000  1
  Rb  Rb5  1  0.99335600  0.49335600  0.50000000  1
  Rb  Rb6  1  0.87500000  0.84016600  0.46516600  1
  Rb  Rb7  1  0.37500000  0.40983400  0.53483400  1
  Rb  Rb8  1  0.59016600  0.12500000  0.96516600  1
  Rb  Rb9  1  0.15983400  0.62500000  0.03483400  1
  Fe  Fe10  1  0.87500000  0.36514900  0.99014900  1
  Fe  Fe11  1  0.37500000  0.88485100  0.00985100  1
  Fe  Fe12  1  0.11514900  0.12500000  0.49014900  1
  Fe  Fe13  1  0.63485100  0.62500000  0.50985100  1
  Fe  Fe14  1  0.50000000  0.50000000  0.00000000  1
  Fe  Fe15  1  0.25000000  0.75000000  0.50000000  1
  O  O16  1  0.09882700  0.51839200  0.26623000  1
  O  O17  1  0.65117300  0.41740300  0.91956400  1
  O  O18  1  0.25216200  0.83259700  0.73377000  1
  O  O19  1  0.49783800  0.73160800  0.08043600  1
  O  O20  1  0.16740300  0.90117300  0.41956400  1
  O  O21  1  0.58259700  0.50216200  0.23377000  1
  O  O22  1  0.48160800  0.74783800  0.58043600  1
  O  O23  1  0.26839200  0.34882700  0.76623000  1
  O  O24  1  0.87500000  0.15232100  0.77732100  1
  O  O25  1  0.37500000  0.09767900  0.22267900  1
  O  O26  1  0.90232100  0.12500000  0.27732100  1
  O  O27  1  0.84767900  0.62500000  0.72267900  1
