# generated using pymatgen
data_YbPr3Co34
_symmetry_space_group_name_H-M   'P 1'
_cell_length_a   6.31459430
_cell_length_b   6.31459430
_cell_length_c   12.63146519
_cell_angle_alpha   83.14570432
_cell_angle_beta   83.14570432
_cell_angle_gamma   83.12870575
_symmetry_Int_Tables_number   1
_chemical_formula_structural   YbPr3Co34
_chemical_formula_sum   'Yb1 Pr3 Co34'
_cell_volume   493.64842633
_cell_formula_units_Z   1
loop_
 _symmetry_equiv_pos_site_id
 _symmetry_equiv_pos_as_xyz
  1  'x, y, z'
loop_
 _atom_site_type_symbol
 _atom_site_label
 _atom_site_symmetry_multiplicity
 _atom_site_fract_x
 _atom_site_fract_y
 _atom_site_fract_z
 _atom_site_occupancy
  Yb  Yb0  1  0.34397400  0.34397400  0.67196600  1
  Pr  Pr1  1  0.34608200  0.34608200  0.17289600  1
  Pr  Pr2  1  0.65185300  0.65185300  0.82601700  1
  Pr  Pr3  1  0.65428600  0.65428600  0.32695200  1
  Co  Co4  1  0.71145100  0.28743100  0.50195100  1
  Co  Co5  1  0.71848600  0.28277600  0.99869200  1
  Co  Co6  1  0.28725500  0.00265500  0.85553300  1
  Co  Co7  1  0.28287800  0.99838400  0.35944900  1
  Co  Co8  1  0.00089400  0.71373600  0.64323200  1
  Co  Co9  1  0.00012900  0.71597800  0.14183700  1
  Co  Co10  1  0.71373600  0.00089400  0.64323200  1
  Co  Co11  1  0.71597800  0.00012900  0.14183700  1
  Co  Co12  1  0.00265500  0.28725500  0.85553300  1
  Co  Co13  1  0.99838400  0.28287800  0.35944900  1
  Co  Co14  1  0.28277600  0.71848600  0.99869200  1
  Co  Co15  1  0.28743100  0.71145100  0.50195100  1
  Co  Co16  1  0.65459200  0.65459200  0.57485800  1
  Co  Co17  1  0.65791600  0.65791600  0.07358900  1
  Co  Co18  1  0.65500900  0.14904100  0.82695500  1
  Co  Co19  1  0.65750600  0.14798400  0.32949100  1
  Co  Co20  1  0.14904100  0.65500900  0.82695500  1
  Co  Co21  1  0.14798400  0.65750600  0.32949100  1
  Co  Co22  1  0.34202800  0.34202800  0.92391900  1
  Co  Co23  1  0.34264800  0.34264800  0.42827300  1
  Co  Co24  1  0.34202000  0.85228200  0.67119500  1
  Co  Co25  1  0.34226300  0.85219500  0.17085400  1
  Co  Co26  1  0.85228200  0.34202000  0.67119500  1
  Co  Co27  1  0.85219500  0.34226300  0.17085400  1
  Co  Co28  1  0.00236100  0.00236100  0.74923200  1
  Co  Co29  1  0.99971300  0.99971300  0.25055300  1
  Co  Co30  1  0.00146900  0.49952300  0.50130200  1
  Co  Co31  1  0.00057600  0.50027100  0.99975700  1
  Co  Co32  1  0.50027100  0.00057600  0.99975700  1
  Co  Co33  1  0.49952300  0.00146900  0.50130200  1
  Co  Co34  1  0.09770300  0.09770300  0.54906500  1
  Co  Co35  1  0.09623500  0.09623500  0.04762100  1
  Co  Co36  1  0.90402000  0.90402000  0.95108900  1
  Co  Co37  1  0.90439900  0.90439900  0.45347300  1
