# generated using pymatgen
data_CaUI6
_symmetry_space_group_name_H-M   'P 1'
_cell_length_a   7.66277764
_cell_length_b   7.66277764
_cell_length_c   14.15339300
_cell_angle_alpha   90.00000000
_cell_angle_beta   90.00000000
_cell_angle_gamma   119.99999692
_symmetry_Int_Tables_number   1
_chemical_formula_structural   CaUI6
_chemical_formula_sum   'Ca2 U2 I12'
_cell_volume   719.72014393
_cell_formula_units_Z   2
loop_
 _symmetry_equiv_pos_site_id
 _symmetry_equiv_pos_as_xyz
  1  'x, y, z'
loop_
 _atom_site_type_symbol
 _atom_site_label
 _atom_site_symmetry_multiplicity
 _atom_site_fract_x
 _atom_site_fract_y
 _atom_site_fract_z
 _atom_site_occupancy
  Ca  Ca0  1  0.66666700  0.33333300  0.75000000  1
  Ca  Ca1  1  0.33333300  0.66666700  0.25000000  1
  U  U2  1  0.00000000  0.00000000  0.50000000  1
  U  U3  1  0.00000000  0.00000000  0.00000000  1
  I  I4  1  0.67729500  0.99626800  0.62384900  1
  I  I5  1  0.32270500  0.00373200  0.37615100  1
  I  I6  1  0.00373200  0.68102600  0.62384900  1
  I  I7  1  0.67729500  0.68102600  0.87615100  1
  I  I8  1  0.99626800  0.31897400  0.37615100  1
  I  I9  1  0.32270500  0.31897400  0.12384900  1
  I  I10  1  0.31897400  0.32270500  0.62384900  1
  I  I11  1  0.00373200  0.32270500  0.87615100  1
  I  I12  1  0.68102600  0.67729500  0.37615100  1
  I  I13  1  0.99626800  0.67729500  0.12384900  1
  I  I14  1  0.31897400  0.99626800  0.87615100  1
  I  I15  1  0.68102600  0.00373200  0.12384900  1
