# generated using pymatgen
data_Nd3Bi(Ru2O7)2
_symmetry_space_group_name_H-M   'P 1'
_cell_length_a   7.41307556
_cell_length_b   7.41307556
_cell_length_c   7.36950319
_cell_angle_alpha   90.00000000
_cell_angle_beta   59.80422173
_cell_angle_gamma   120.00000000
_symmetry_Int_Tables_number   1
_chemical_formula_structural   Nd3Bi(Ru2O7)2
_chemical_formula_sum   'Nd3 Bi1 Ru4 O14'
_cell_volume   285.51475036
_cell_formula_units_Z   1
loop_
 _symmetry_equiv_pos_site_id
 _symmetry_equiv_pos_as_xyz
  1  'x, y, z'
loop_
 _atom_site_type_symbol
 _atom_site_label
 _atom_site_symmetry_multiplicity
 _atom_site_fract_x
 _atom_site_fract_y
 _atom_site_fract_z
 _atom_site_occupancy
  Nd  Nd0  1  0.25000000  0.37500000  0.37500000  1
  Nd  Nd1  1  0.25000000  0.87500000  0.37500000  1
  Nd  Nd2  1  0.75000000  0.37500000  0.37500000  1
  Bi  Bi3  1  0.75000000  0.37500000  0.87500000  1
  Ru  Ru4  1  0.75000000  0.87500000  0.37500000  1
  Ru  Ru5  1  0.25000000  0.87500000  0.87500000  1
  Ru  Ru6  1  0.25000000  0.37500000  0.87500000  1
  Ru  Ru7  1  0.75000000  0.87500000  0.87500000  1
  O  O8  1  0.91095300  0.95547600  0.54477800  1
  O  O9  1  0.49974500  0.54426900  0.54477800  1
  O  O10  1  0.49974500  0.95547600  0.54477800  1
  O  O11  1  0.09464800  0.54732400  0.94972000  1
  O  O12  1  0.50295600  0.95563200  0.94972000  1
  O  O13  1  0.50295600  0.54732400  0.94972000  1
  O  O14  1  0.58904700  0.79452400  0.20522200  1
  O  O15  1  0.00025500  0.20573100  0.20522200  1
  O  O16  1  0.00025500  0.79452400  0.20522200  1
  O  O17  1  0.40535200  0.20267600  0.80028000  1
  O  O18  1  0.99704400  0.79436800  0.80028000  1
  O  O19  1  0.99704400  0.20267600  0.80028000  1
  O  O20  1  0.49886300  0.24943100  0.25170600  1
  O  O21  1  0.00113700  0.50056900  0.49829400  1
