# generated using pymatgen
data_RbMo2P3O13
_symmetry_space_group_name_H-M   'P 1'
_cell_length_a   6.49584172
_cell_length_b   9.92708154
_cell_length_c   19.72600916
_cell_angle_alpha   90.00000000
_cell_angle_beta   90.00000000
_cell_angle_gamma   107.06833359
_symmetry_Int_Tables_number   1
_chemical_formula_structural   RbMo2P3O13
_chemical_formula_sum   'Rb4 Mo8 P12 O52'
_cell_volume   1216.00084204
_cell_formula_units_Z   4
loop_
 _symmetry_equiv_pos_site_id
 _symmetry_equiv_pos_as_xyz
  1  'x, y, z'
loop_
 _atom_site_type_symbol
 _atom_site_label
 _atom_site_symmetry_multiplicity
 _atom_site_fract_x
 _atom_site_fract_y
 _atom_site_fract_z
 _atom_site_occupancy
  O  O0  1  0.44407072  0.57823998  0.04627476  1
  O  O1  1  0.55592961  0.42176010  0.54627477  1
  O  O2  1  0.17679571  0.93378352  0.49686887  1
  O  O3  1  0.82320461  0.06621655  0.99686887  1
  O  O4  1  0.45454909  0.16177756  0.47369490  1
  O  O5  1  0.54545123  0.83822252  0.97369491  1
  O  O6  1  0.20865421  0.22617209  0.05049881  1
  O  O7  1  0.79134612  0.77382799  0.55049882  1
  O  O8  1  0.93252638  0.55558338  0.13557934  1
  O  O9  1  0.06747395  0.44441670  0.63557935  1
  O  O10  1  0.07742859  0.93802598  0.08822578  1
  O  O11  1  0.92257174  0.06197409  0.58822579  1
  O  O12  1  0.71412531  0.20781146  0.13590409  1
  O  O13  1  0.28587501  0.79218862  0.63590410  1
  O  O14  1  0.97120649  0.29067012  0.35025436  1
  O  O15  1  0.02879384  0.70932996  0.85025437  1
  O  O16  1  0.52438094  0.69471122  0.33359856  1
  O  O17  1  0.47561939  0.30528886  0.83359857  1
  O  O18  1  0.82267542  0.83961143  0.40885154  1
  O  O19  1  0.33084902  0.85516316  0.77727562  1
  O  O20  1  0.66421426  0.58087472  0.42939532  1
  O  O21  1  0.33578452  0.41912535  0.92939533  1
  O  O22  1  0.58251589  0.93015204  0.09390575  1
  O  O23  1  0.41748444  0.06984804  0.59390575  1
  O  O24  1  0.12204133  0.63353122  0.96700834  1
  O  O25  1  0.87795900  0.36646886  0.46700834  1
  O  O26  1  0.37725372  0.37951731  0.71728041  1
  O  O27  1  0.62274614  0.62048171  0.21728041  1
  O  O28  1  0.05981464  0.96233982  0.69380657  1
  O  O29  1  0.94018521  0.03765921  0.19380656  1
  O  O30  1  0.03674957  0.87032464  0.94922277  1
  O  O31  1  0.96325076  0.12967544  0.44922276  1
  O  O32  1  0.74963634  0.62902925  0.93864375  1
  O  O33  1  0.25036398  0.37097083  0.43864374  1
  O  O34  1  0.67858691  0.94985433  0.68827015  1
  O  O35  1  0.32141342  0.05014575  0.18827065  1
  O  O36  1  0.09430026  0.32932132  0.82544199  1
  O  O37  1  0.90570007  0.67067876  0.32544199  1
  O  O38  1  0.46967330  0.14643043  0.73356472  1
  O  O39  1  0.53032703  0.85356965  0.23356472  1
  O  O40  1  0.75645751  0.38639984  0.74550963  1
  O  O41  1  0.24354282  0.61360024  0.24550962  1
  O  O42  1  0.40626692  0.68140692  0.85854030  1
  O  O43  1  0.59373340  0.31859316  0.35854029  1
  O  O44  1  0.95156999  0.18280593  0.70219283  1
  O  O45  1  0.04843034  0.81719415  0.20219282  1
  O  O46  1  0.16839715  0.59493570  0.75472725  1
  O  O47  1  0.83160163  0.40506437  0.25472724  1
  O  O48  1  0.55272153  0.94043881  0.49804287  1
  O  O49  1  0.44727880  0.05956126  0.99804288  1
  O  O50  1  0.17732491  0.16038865  0.90885154  1
  O  O51  1  0.66915131  0.14483692  0.27727562  1
  P  P52  1  0.48101151  0.69841892  0.25210106  1
  P  P53  1  0.51898882  0.30158116  0.75210107  1
  P  P54  1  0.01292650  0.28415422  0.43084293  1
  P  P55  1  0.98707382  0.71584586  0.93084293  1
  P  P56  1  0.75639917  0.29261846  0.30834631  1
  P  P57  1  0.24360115  0.70738162  0.80834632  1
  P  P58  1  0.59746684  0.97070024  0.01850945  1
  P  P59  1  0.90470994  0.04059114  0.66567601  1
  P  P60  1  0.73940797  0.69385775  0.37478560  1
  P  P61  1  0.26059236  0.30614233  0.87478561  1
  P  P62  1  0.09528884  0.95940894  0.16567601  1
  P  P63  1  0.40253349  0.02929984  0.51850946  1
  Rb  Rb64  1  0.78560222  0.37332644  0.01825428  1
  Rb  Rb65  1  0.22474285  0.01529694  0.33792312  1
  Rb  Rb66  1  0.21439811  0.62667364  0.51825428  1
  Rb  Rb67  1  0.77525748  0.98470313  0.83792313  1
  Mo  Mo68  1  0.56008434  0.37345923  0.46354591  1
  Mo  Mo69  1  0.43991598  0.62654085  0.96354592  1
  Mo  Mo70  1  0.14103695  0.07175264  0.00632854  1
  Mo  Mo71  1  0.85896291  0.92824638  0.50632855  1
  Mo  Mo72  1  0.36226427  0.94605466  0.68100442  1
  Mo  Mo73  1  0.63773606  0.05394542  0.18100442  1
  Mo  Mo74  1  0.06353931  0.39162356  0.71800325  1
  Mo  Mo75  1  0.93646102  0.60837651  0.21800324  1
