# generated using pymatgen
data_Lu(Ni2As)2
_symmetry_space_group_name_H-M   'P 1'
_cell_length_a   3.76507255
_cell_length_b   7.19029155
_cell_length_c   7.19029155
_cell_angle_alpha   90.00000000
_cell_angle_beta   90.00000000
_cell_angle_gamma   90.00000000
_symmetry_Int_Tables_number   1
_chemical_formula_structural   Lu(Ni2As)2
_chemical_formula_sum   'Lu2 Ni8 As4'
_cell_volume   194.65535240
_cell_formula_units_Z   2
loop_
 _symmetry_equiv_pos_site_id
 _symmetry_equiv_pos_as_xyz
  1  'x, y, z'
loop_
 _atom_site_type_symbol
 _atom_site_label
 _atom_site_symmetry_multiplicity
 _atom_site_fract_x
 _atom_site_fract_y
 _atom_site_fract_z
 _atom_site_occupancy
  Lu  Lu0  1  0.00000000  0.50000000  0.50000000  1
  Lu  Lu1  1  0.50000000  -0.00000000  0.00000000  1
  Ni  Ni2  1  0.50000000  0.15421040  0.58956622  1
  Ni  Ni3  1  0.50000000  0.84578960  0.41043378  1
  Ni  Ni4  1  -0.00000000  0.34578960  0.08956622  1
  Ni  Ni5  1  -0.00000000  0.65421040  0.91043378  1
  Ni  Ni6  1  0.50000000  0.58956622  0.15421040  1
  Ni  Ni7  1  0.50000000  0.41043378  0.84578960  1
  Ni  Ni8  1  -0.00000000  0.08956622  0.34578960  1
  Ni  Ni9  1  0.00000000  0.91043378  0.65421040  1
  As  As10  1  0.50000000  0.71694510  0.71694510  1
  As  As11  1  0.50000000  0.28305490  0.28305490  1
  As  As12  1  0.00000000  0.78305490  0.21694510  1
  As  As13  1  0.00000000  0.21694510  0.78305490  1
