# generated using pymatgen
data_HoFeRu
_symmetry_space_group_name_H-M   'P 1'
_cell_length_a   5.15190992
_cell_length_b   5.15190992
_cell_length_c   5.15190992
_cell_angle_alpha   120.81652466
_cell_angle_beta   117.47814659
_cell_angle_gamma   91.50700478
_symmetry_Int_Tables_number   1
_chemical_formula_structural   HoFeRu
_chemical_formula_sum   'Ho2 Fe2 Ru2'
_cell_volume   97.80074489
_cell_formula_units_Z   2
loop_
 _symmetry_equiv_pos_site_id
 _symmetry_equiv_pos_as_xyz
  1  'x, y, z'
loop_
 _atom_site_type_symbol
 _atom_site_label
 _atom_site_symmetry_multiplicity
 _atom_site_fract_x
 _atom_site_fract_y
 _atom_site_fract_z
 _atom_site_occupancy
  Ho  Ho0  1  0.37235800  0.12235800  0.25000000  1
  Ho  Ho1  1  0.62764200  0.87764200  0.75000000  1
  Fe  Fe2  1  0.00000000  0.50000000  0.00000000  1
  Fe  Fe3  1  0.00000000  0.00000000  0.50000000  1
  Ru  Ru4  1  0.50000000  0.50000000  0.00000000  1
  Ru  Ru5  1  0.00000000  0.50000000  0.50000000  1
