# generated using pymatgen
data_BiTeIr
_symmetry_space_group_name_H-M   'P 1'
_cell_length_a   6.61811600
_cell_length_b   6.61811600
_cell_length_c   6.61811600
_cell_angle_alpha   90.00000000
_cell_angle_beta   90.00000000
_cell_angle_gamma   90.00000000
_symmetry_Int_Tables_number   1
_chemical_formula_structural   BiTeIr
_chemical_formula_sum   'Bi4 Te4 Ir4'
_cell_volume   289.86990298
_cell_formula_units_Z   4
loop_
 _symmetry_equiv_pos_site_id
 _symmetry_equiv_pos_as_xyz
  1  'x, y, z'
loop_
 _atom_site_type_symbol
 _atom_site_label
 _atom_site_symmetry_multiplicity
 _atom_site_fract_x
 _atom_site_fract_y
 _atom_site_fract_z
 _atom_site_occupancy
  Bi  Bi0  1  0.13075100  0.86924900  0.36924900  1
  Bi  Bi1  1  0.86924900  0.36924900  0.13075100  1
  Bi  Bi2  1  0.36924900  0.13075100  0.86924900  1
  Bi  Bi3  1  0.63075100  0.63075100  0.63075100  1
  Te  Te4  1  0.87342700  0.12657300  0.62657300  1
  Te  Te5  1  0.12657300  0.62657300  0.87342700  1
  Te  Te6  1  0.62657300  0.87342700  0.12657300  1
  Te  Te7  1  0.37342700  0.37342700  0.37342700  1
  Ir  Ir8  1  0.49362100  0.50637900  0.00637900  1
  Ir  Ir9  1  0.50637900  0.00637900  0.49362100  1
  Ir  Ir10  1  0.00637900  0.49362100  0.50637900  1
  Ir  Ir11  1  0.99362100  0.99362100  0.99362100  1
