# generated using pymatgen
data_La2Fe(SeO)2
_symmetry_space_group_name_H-M   'P 1'
_cell_length_a   3.99593200
_cell_length_b   6.12964793
_cell_length_c   12.61026944
_cell_angle_alpha   100.42090281
_cell_angle_beta   80.88053397
_cell_angle_gamma   109.02047142
_symmetry_Int_Tables_number   1
_chemical_formula_structural   La2Fe(SeO)2
_chemical_formula_sum   'La4 Fe2 Se4 O4'
_cell_volume   285.54079997
_cell_formula_units_Z   2
loop_
 _symmetry_equiv_pos_site_id
 _symmetry_equiv_pos_as_xyz
  1  'x, y, z'
loop_
 _atom_site_type_symbol
 _atom_site_label
 _atom_site_symmetry_multiplicity
 _atom_site_fract_x
 _atom_site_fract_y
 _atom_site_fract_z
 _atom_site_occupancy
  La  La0  1  0.82099600  0.01411300  0.37212700  1
  La  La1  1  0.32099400  0.51411900  0.87213400  1
  La  La2  1  0.67900800  0.48588100  0.12786600  1
  La  La3  1  0.17900400  0.98588600  0.62787300  1
  Fe  Fe4  1  0.49999900  0.50000000  0.50000000  1
  Fe  Fe5  1  0.99999900  0.00000100  0.00000000  1
  Se  Se6  1  0.10063900  0.54317300  0.34193100  1
  Se  Se7  1  0.60064000  0.04317300  0.84193400  1
  Se  Se8  1  0.39936000  0.95682600  0.15806600  1
  Se  Se9  1  0.89936100  0.45682700  0.65806900  1
  O  O10  1  0.34468500  0.14880900  0.45944100  1
  O  O11  1  0.84469000  0.64882500  0.95945000  1
  O  O12  1  0.15531000  0.35117600  0.04055100  1
  O  O13  1  0.65531500  0.85119100  0.54055900  1
