# generated using pymatgen
data_Dy2Fe17C3
_symmetry_space_group_name_H-M   'P 1'
_cell_length_a   6.50016259
_cell_length_b   6.50016259
_cell_length_c   6.50016226
_cell_angle_alpha   83.07101404
_cell_angle_beta   83.07101404
_cell_angle_gamma   83.07100941
_symmetry_Int_Tables_number   1
_chemical_formula_structural   Dy2Fe17C3
_chemical_formula_sum   'Dy2 Fe17 C3'
_cell_volume   269.07562291
_cell_formula_units_Z   1
loop_
 _symmetry_equiv_pos_site_id
 _symmetry_equiv_pos_as_xyz
  1  'x, y, z'
loop_
 _atom_site_type_symbol
 _atom_site_label
 _atom_site_symmetry_multiplicity
 _atom_site_fract_x
 _atom_site_fract_y
 _atom_site_fract_z
 _atom_site_occupancy
  Dy  Dy0  1  0.65829600  0.65829600  0.65829600  1
  Dy  Dy1  1  0.34170400  0.34170400  0.34170400  1
  Fe  Fe2  1  0.00000000  0.00000000  0.50000000  1
  Fe  Fe3  1  0.50000000  0.00000000  0.00000000  1
  Fe  Fe4  1  0.00000000  0.50000000  0.00000000  1
  Fe  Fe5  1  0.71695600  0.28304400  0.00000000  1
  Fe  Fe6  1  0.00000000  0.71695600  0.28304400  1
  Fe  Fe7  1  0.28304400  0.00000000  0.71695600  1
  Fe  Fe8  1  0.00000000  0.28304400  0.71695600  1
  Fe  Fe9  1  0.71695600  0.00000000  0.28304400  1
  Fe  Fe10  1  0.28304400  0.71695600  0.00000000  1
  Fe  Fe11  1  0.34411000  0.34411000  0.85574600  1
  Fe  Fe12  1  0.85574600  0.34411000  0.34411000  1
  Fe  Fe13  1  0.34411000  0.85574600  0.34411000  1
  Fe  Fe14  1  0.65589000  0.65589000  0.14425400  1
  Fe  Fe15  1  0.14425400  0.65589000  0.65589000  1
  Fe  Fe16  1  0.65589000  0.14425400  0.65589000  1
  Fe  Fe17  1  0.90405300  0.90405300  0.90405300  1
  Fe  Fe18  1  0.09594700  0.09594700  0.09594700  1
  C  C19  1  0.50000000  0.50000000  0.00000000  1
  C  C20  1  0.00000000  0.50000000  0.50000000  1
  C  C21  1  0.50000000  0.00000000  0.50000000  1
