# generated using pymatgen
data_K2Cr2(PO4)3
_symmetry_space_group_name_H-M   'P 1'
_cell_length_a   9.91357600
_cell_length_b   9.91357600
_cell_length_c   9.91357600
_cell_angle_alpha   90.00000000
_cell_angle_beta   90.00000000
_cell_angle_gamma   90.00000000
_symmetry_Int_Tables_number   1
_chemical_formula_structural   K2Cr2(PO4)3
_chemical_formula_sum   'K8 Cr8 P12 O48'
_cell_volume   974.29622772
_cell_formula_units_Z   4
loop_
 _symmetry_equiv_pos_site_id
 _symmetry_equiv_pos_as_xyz
  1  'x, y, z'
loop_
 _atom_site_type_symbol
 _atom_site_label
 _atom_site_symmetry_multiplicity
 _atom_site_fract_x
 _atom_site_fract_y
 _atom_site_fract_z
 _atom_site_occupancy
  K  K0  1  0.81757800  0.81757800  0.81757800  1
  K  K1  1  0.68242200  0.18242200  0.31757800  1
  K  K2  1  0.18242200  0.31757800  0.68242200  1
  K  K3  1  0.31757800  0.68242200  0.18242200  1
  K  K4  1  0.04555600  0.04555600  0.04555600  1
  K  K5  1  0.45444400  0.95444400  0.54555600  1
  K  K6  1  0.95444400  0.54555600  0.45444400  1
  K  K7  1  0.54555600  0.45444400  0.95444400  1
  Cr  Cr8  1  0.33656600  0.33656600  0.33656600  1
  Cr  Cr9  1  0.16343400  0.66343400  0.83656600  1
  Cr  Cr10  1  0.66343400  0.83656600  0.16343400  1
  Cr  Cr11  1  0.83656600  0.16343400  0.66343400  1
  Cr  Cr12  1  0.60366900  0.60366900  0.60366900  1
  Cr  Cr13  1  0.89633100  0.39633100  0.10366900  1
  Cr  Cr14  1  0.39633100  0.10366900  0.89633100  1
  Cr  Cr15  1  0.10366900  0.89633100  0.39633100  1
  P  P16  1  0.02329800  0.20916300  0.37700800  1
  P  P17  1  0.47670200  0.79083700  0.87700800  1
  P  P18  1  0.97670200  0.70916300  0.12299200  1
  P  P19  1  0.37700800  0.02329800  0.20916300  1
  P  P20  1  0.52329800  0.29083700  0.62299200  1
  P  P21  1  0.87700800  0.47670200  0.79083700  1
  P  P22  1  0.12299200  0.97670200  0.70916300  1
  P  P23  1  0.62299200  0.52329800  0.29083700  1
  P  P24  1  0.20916300  0.37700800  0.02329800  1
  P  P25  1  0.70916300  0.12299200  0.97670200  1
  P  P26  1  0.29083700  0.62299200  0.52329800  1
  P  P27  1  0.79083700  0.87700800  0.47670200  1
  O  O28  1  0.01073600  0.06096900  0.32887000  1
  O  O29  1  0.48926400  0.93903100  0.82887000  1
  O  O30  1  0.98926400  0.56096900  0.17113000  1
  O  O31  1  0.32887000  0.01073600  0.06096900  1
  O  O32  1  0.51073600  0.43903100  0.67113000  1
  O  O33  1  0.82887000  0.48926400  0.93903100  1
  O  O34  1  0.17113000  0.98926400  0.56096900  1
  O  O35  1  0.67113000  0.51073600  0.43903100  1
  O  O36  1  0.06096900  0.32887000  0.01073600  1
  O  O37  1  0.56096900  0.17113000  0.98926400  1
  O  O38  1  0.43903100  0.67113000  0.51073600  1
  O  O39  1  0.93903100  0.82887000  0.48926400  1
  O  O40  1  0.17263500  0.24472300  0.40104200  1
  O  O41  1  0.32736500  0.75527700  0.90104200  1
  O  O42  1  0.82736500  0.74472300  0.09895800  1
  O  O43  1  0.40104200  0.17263500  0.24472300  1
  O  O44  1  0.67263500  0.25527700  0.59895800  1
  O  O45  1  0.90104200  0.32736500  0.75527700  1
  O  O46  1  0.09895800  0.82736500  0.74472300  1
  O  O47  1  0.59895800  0.67263500  0.25527700  1
  O  O48  1  0.24472300  0.40104200  0.17263500  1
  O  O49  1  0.74472300  0.09895800  0.82736500  1
  O  O50  1  0.25527700  0.59895800  0.67263500  1
  O  O51  1  0.75527700  0.90104200  0.32736500  1
  O  O52  1  0.04526600  0.80175400  0.22678600  1
  O  O53  1  0.45473400  0.19824600  0.72678600  1
  O  O54  1  0.95473400  0.30175400  0.27321400  1
  O  O55  1  0.22678600  0.04526600  0.80175400  1
  O  O56  1  0.54526600  0.69824600  0.77321400  1
  O  O57  1  0.72678600  0.45473400  0.19824600  1
  O  O58  1  0.27321400  0.95473400  0.30175400  1
  O  O59  1  0.77321400  0.54526600  0.69824600  1
  O  O60  1  0.80175400  0.22678600  0.04526600  1
  O  O61  1  0.30175400  0.27321400  0.95473400  1
  O  O62  1  0.69824600  0.77321400  0.54526600  1
  O  O63  1  0.19824600  0.72678600  0.45473400  1
  O  O64  1  0.26521400  0.48839300  0.44791100  1
  O  O65  1  0.23478600  0.51160700  0.94791100  1
  O  O66  1  0.73478600  0.98839300  0.05208900  1
  O  O67  1  0.44791100  0.26521400  0.48839300  1
  O  O68  1  0.76521400  0.01160700  0.55208900  1
  O  O69  1  0.94791100  0.23478600  0.51160700  1
  O  O70  1  0.05208900  0.73478600  0.98839300  1
  O  O71  1  0.55208900  0.76521400  0.01160700  1
  O  O72  1  0.48839300  0.44791100  0.26521400  1
  O  O73  1  0.98839300  0.05208900  0.73478600  1
  O  O74  1  0.01160700  0.55208900  0.76521400  1
  O  O75  1  0.51160700  0.94791100  0.23478600  1
