# generated using pymatgen
data_SrCo2(PO4)2
_symmetry_space_group_name_H-M   'P 1'
_cell_length_a   5.07486915
_cell_length_b   8.74050986
_cell_length_c   9.42546479
_cell_angle_alpha   113.89260517
_cell_angle_beta   102.83458414
_cell_angle_gamma   92.95351207
_symmetry_Int_Tables_number   1
_chemical_formula_structural   SrCo2(PO4)2
_chemical_formula_sum   'Sr2 Co4 P4 O16'
_cell_volume   367.98221435
_cell_formula_units_Z   2
loop_
 _symmetry_equiv_pos_site_id
 _symmetry_equiv_pos_as_xyz
  1  'x, y, z'
loop_
 _atom_site_type_symbol
 _atom_site_label
 _atom_site_symmetry_multiplicity
 _atom_site_fract_x
 _atom_site_fract_y
 _atom_site_fract_z
 _atom_site_occupancy
  O  O0  1  0.98370598  0.88049777  0.28783613  1
  O  O1  1  0.01629444  0.11950234  0.71216421  1
  O  O2  1  0.96394118  0.56584287  0.17557387  1
  O  O3  1  0.03605883  0.43415718  0.82442628  1
  O  O4  1  0.58316499  0.70609379  0.30202466  1
  O  O5  1  0.41683522  0.29390627  0.69797546  1
  O  O6  1  0.07267956  0.73086998  0.47174122  1
  O  O7  1  0.92732053  0.26912984  0.52825886  1
  O  O8  1  0.57265629  0.63154745  0.63825889  1
  O  O9  1  0.42734347  0.36845216  0.36174092  1
  O  O10  1  0.99846098  0.16740133  0.16417963  1
  O  O11  1  0.00153887  0.83259801  0.83581998  1
  O  O12  1  0.44877891  0.06026511  0.20577206  1
  O  O13  1  0.63878662  0.74276235  0.94057280  1
  O  O14  1  0.36121333  0.25723728  0.05942701  1
  O  O15  1  0.55122124  0.93973455  0.79422781  1
  P  P16  1  0.89099217  0.71959633  0.30628909  1
  P  P17  1  0.10900803  0.28040384  0.69371100  1
  P  P18  1  0.68688569  0.78903032  0.80815675  1
  P  P19  1  0.31311421  0.21096923  0.19184291  1
  Co  Co20  1  0.84688558  0.08913330  0.30152640  1
  Co  Co21  1  0.38760315  0.60819845  0.41347974  1
  Co  Co22  1  0.61239662  0.39180125  0.58652009  1
  Co  Co23  1  0.15311462  0.91086662  0.69847374  1
  Sr  Sr24  1  0.22358855  0.73601015  0.05055626  1
  Sr  Sr25  1  0.77641139  0.26398991  0.94944381  1
