# generated using pymatgen
data_Eu5Nb4O15
_symmetry_space_group_name_H-M   'P 1'
_cell_length_a   5.72946810
_cell_length_b   5.72914791
_cell_length_c   11.58337689
_cell_angle_alpha   89.99810779
_cell_angle_beta   89.97305183
_cell_angle_gamma   120.00761255
_symmetry_Int_Tables_number   1
_chemical_formula_structural   Eu5Nb4O15
_chemical_formula_sum   'Eu5 Nb4 O15'
_cell_volume   329.25832953
_cell_formula_units_Z   1
loop_
 _symmetry_equiv_pos_site_id
 _symmetry_equiv_pos_as_xyz
  1  'x, y, z'
loop_
 _atom_site_type_symbol
 _atom_site_label
 _atom_site_symmetry_multiplicity
 _atom_site_fract_x
 _atom_site_fract_y
 _atom_site_fract_z
 _atom_site_occupancy
  Eu  Eu0  1  0.99961300  0.99967800  0.99960600  1
  Eu  Eu1  1  0.33403400  0.66766700  0.43835800  1
  Eu  Eu2  1  0.66600500  0.33350300  0.56056200  1
  Eu  Eu3  1  0.33352900  0.66782300  0.77083000  1
  Eu  Eu4  1  0.66531100  0.33220700  0.22844500  1
  Nb  Nb5  1  0.33309700  0.66623400  0.10504500  1
  Nb  Nb6  1  0.66684600  0.33362900  0.89522200  1
  Nb  Nb7  1  0.99939600  0.99970200  0.32077800  1
  Nb  Nb8  1  0.00040000  0.00054500  0.67915500  1
  O  O9  1  0.17161400  0.82959800  0.60402600  1
  O  O10  1  0.17194600  0.34235200  0.60396500  1
  O  O11  1  0.65833600  0.82942600  0.60412900  1
  O  O12  1  0.34159800  0.17044400  0.39581300  1
  O  O13  1  0.82772000  0.65737500  0.39581500  1
  O  O14  1  0.82761200  0.17022600  0.39569000  1
  O  O15  1  0.50028100  0.00018000  0.00036100  1
  O  O16  1  0.00003100  0.49995200  0.00032900  1
  O  O17  1  0.50027400  0.49988400  0.00028500  1
  O  O18  1  0.16535000  0.83530600  0.19849000  1
  O  O19  1  0.16542200  0.32974800  0.19840200  1
  O  O20  1  0.67112200  0.83545500  0.19792800  1
  O  O21  1  0.32910000  0.16407900  0.80238600  1
  O  O22  1  0.83558100  0.67056200  0.80213100  1
  O  O23  1  0.83550100  0.16442700  0.80224700  1
