# generated using pymatgen
data_AgSnF6
_symmetry_space_group_name_H-M   'P 1'
_cell_length_a   5.32967744
_cell_length_b   5.46726693
_cell_length_c   5.74705739
_cell_angle_alpha   64.09693930
_cell_angle_beta   89.46497571
_cell_angle_gamma   61.45953279
_symmetry_Int_Tables_number   1
_chemical_formula_structural   AgSnF6
_chemical_formula_sum   'Ag1 Sn1 F6'
_cell_volume   128.05107570
_cell_formula_units_Z   1
loop_
 _symmetry_equiv_pos_site_id
 _symmetry_equiv_pos_as_xyz
  1  'x, y, z'
loop_
 _atom_site_type_symbol
 _atom_site_label
 _atom_site_symmetry_multiplicity
 _atom_site_fract_x
 _atom_site_fract_y
 _atom_site_fract_z
 _atom_site_occupancy
  F  F0  1  0.57768018  0.56646112  0.71981403  1
  F  F1  1  0.42231982  0.43353888  0.28018597  1
  F  F2  1  0.74511574  0.85596919  0.26038204  1
  F  F3  1  0.25488426  0.14403081  0.73961796  1
  F  F4  1  0.12949027  0.12838742  0.26152464  1
  F  F5  1  0.87050973  0.87161258  0.73847536  1
  Ag  Ag6  1  0.00000000  0.00000000  0.00000000  1
  Sn  Sn7  1  0.50000000  0.00000000  0.50000000  1
