# generated using pymatgen
data_Cs2Pu(Cl2O)2
_symmetry_space_group_name_H-M   'P 1'
_cell_length_a   7.28685674
_cell_length_b   7.28685674
_cell_length_c   5.90550033
_cell_angle_alpha   84.75935666
_cell_angle_beta   84.75935666
_cell_angle_gamma   64.90155284
_symmetry_Int_Tables_number   1
_chemical_formula_structural   Cs2Pu(Cl2O)2
_chemical_formula_sum   'Cs2 Pu1 Cl4 O2'
_cell_volume   282.29618484
_cell_formula_units_Z   1
loop_
 _symmetry_equiv_pos_site_id
 _symmetry_equiv_pos_as_xyz
  1  'x, y, z'
loop_
 _atom_site_type_symbol
 _atom_site_label
 _atom_site_symmetry_multiplicity
 _atom_site_fract_x
 _atom_site_fract_y
 _atom_site_fract_z
 _atom_site_occupancy
  Cs  Cs0  1  0.34029600  0.34029600  0.30356900  1
  Cs  Cs1  1  0.65970400  0.65970400  0.69643100  1
  Pu  Pu2  1  0.00000000  0.00000000  0.00000000  1
  Cl  Cl3  1  0.34843700  0.85543400  0.20879500  1
  Cl  Cl4  1  0.65156300  0.14456600  0.79120500  1
  Cl  Cl5  1  0.14456600  0.65156300  0.79120500  1
  Cl  Cl6  1  0.85543400  0.34843700  0.20879500  1
  O  O7  1  0.88788700  0.88788700  0.21821800  1
  O  O8  1  0.11211300  0.11211300  0.78178200  1
