# generated using pymatgen
data_Co2GeO4
_symmetry_space_group_name_H-M   'P 1'
_cell_length_a   5.91436698
_cell_length_b   5.91436698
_cell_length_c   5.91436698
_cell_angle_alpha   60.00000000
_cell_angle_beta   60.00000000
_cell_angle_gamma   60.00000000
_symmetry_Int_Tables_number   1
_chemical_formula_structural   Co2GeO4
_chemical_formula_sum   'Co4 Ge2 O8'
_cell_volume   146.28837253
_cell_formula_units_Z   2
loop_
 _symmetry_equiv_pos_site_id
 _symmetry_equiv_pos_as_xyz
  1  'x, y, z'
loop_
 _atom_site_type_symbol
 _atom_site_label
 _atom_site_symmetry_multiplicity
 _atom_site_fract_x
 _atom_site_fract_y
 _atom_site_fract_z
 _atom_site_occupancy
  Co  Co0  1  0.12500000  0.62500000  0.12500000  1
  Co  Co1  1  0.12500000  0.12500000  0.62500000  1
  Co  Co2  1  0.12500000  0.12500000  0.12500000  1
  Co  Co3  1  0.62500000  0.12500000  0.12500000  1
  Ge  Ge4  1  0.75000000  0.75000000  0.75000000  1
  Ge  Ge5  1  0.50000000  0.50000000  0.50000000  1
  O  O6  1  0.87415400  0.37753800  0.87415400  1
  O  O7  1  0.37584600  0.37584600  0.87246200  1
  O  O8  1  0.37584600  0.37584600  0.37584600  1
  O  O9  1  0.87246200  0.37584600  0.37584600  1
  O  O10  1  0.87415400  0.87415400  0.87415400  1
  O  O11  1  0.37753800  0.87415400  0.87415400  1
  O  O12  1  0.37584600  0.87246200  0.37584600  1
  O  O13  1  0.87415400  0.87415400  0.37753800  1
