# generated using pymatgen
data_K2Cd3Te4
_symmetry_space_group_name_H-M   'P 1'
_cell_length_a   7.44986000
_cell_length_b   11.61040700
_cell_length_c   15.42800900
_cell_angle_alpha   90.00000000
_cell_angle_beta   90.00000000
_cell_angle_gamma   90.00000000
_symmetry_Int_Tables_number   1
_chemical_formula_structural   K2Cd3Te4
_chemical_formula_sum   'K8 Cd12 Te16'
_cell_volume   1334.45962692
_cell_formula_units_Z   4
loop_
 _symmetry_equiv_pos_site_id
 _symmetry_equiv_pos_as_xyz
  1  'x, y, z'
loop_
 _atom_site_type_symbol
 _atom_site_label
 _atom_site_symmetry_multiplicity
 _atom_site_fract_x
 _atom_site_fract_y
 _atom_site_fract_z
 _atom_site_occupancy
  K  K0  1  0.97927000  0.25000000  0.53443800  1
  K  K1  1  0.47927000  0.75000000  0.96556200  1
  K  K2  1  0.52073000  0.25000000  0.03443800  1
  K  K3  1  0.02073000  0.75000000  0.46556200  1
  K  K4  1  0.00000000  0.00000000  0.00000000  1
  K  K5  1  0.50000000  0.00000000  0.50000000  1
  K  K6  1  0.00000000  0.50000000  0.00000000  1
  K  K7  1  0.50000000  0.50000000  0.50000000  1
  Cd  Cd8  1  0.34019900  0.59794400  0.25605700  1
  Cd  Cd9  1  0.73011000  0.75000000  0.70227500  1
  Cd  Cd10  1  0.15980100  0.90205600  0.75605700  1
  Cd  Cd11  1  0.65980100  0.09794400  0.74394300  1
  Cd  Cd12  1  0.34019900  0.90205600  0.25605700  1
  Cd  Cd13  1  0.84019900  0.09794400  0.24394300  1
  Cd  Cd14  1  0.65980100  0.40205600  0.74394300  1
  Cd  Cd15  1  0.15980100  0.59794400  0.75605700  1
  Cd  Cd16  1  0.76989000  0.75000000  0.20227500  1
  Cd  Cd17  1  0.26989000  0.25000000  0.29772500  1
  Cd  Cd18  1  0.23011000  0.25000000  0.79772500  1
  Cd  Cd19  1  0.84019900  0.40205600  0.24394300  1
  Te  Te20  1  0.07461100  0.25000000  0.13589000  1
  Te  Te21  1  0.42538900  0.25000000  0.63589000  1
  Te  Te22  1  0.92538900  0.75000000  0.86411000  1
  Te  Te23  1  0.57461100  0.75000000  0.36411000  1
  Te  Te24  1  0.36850200  0.75000000  0.64533500  1
  Te  Te25  1  0.86850200  0.25000000  0.85466500  1
  Te  Te26  1  0.63149800  0.25000000  0.35466500  1
  Te  Te27  1  0.13149800  0.75000000  0.14533500  1
  Te  Te28  1  0.88575100  0.53288900  0.63391500  1
  Te  Te29  1  0.38575100  0.46711100  0.86608500  1
  Te  Te30  1  0.11424900  0.03288900  0.36608500  1
  Te  Te31  1  0.61424900  0.96711100  0.13391500  1
  Te  Te32  1  0.11424900  0.46711100  0.36608500  1
  Te  Te33  1  0.61424900  0.53288900  0.13391500  1
  Te  Te34  1  0.88575100  0.96711100  0.63391500  1
  Te  Te35  1  0.38575100  0.03288900  0.86608500  1
