# generated using pymatgen
data_Ba3As4(HO7)2
_symmetry_space_group_name_H-M   'P 1'
_cell_length_a   7.44355967
_cell_length_b   7.44355967
_cell_length_c   14.58107651
_cell_angle_alpha   76.94959897
_cell_angle_beta   76.94959897
_cell_angle_gamma   70.46462647
_symmetry_Int_Tables_number   1
_chemical_formula_structural   Ba3As4(HO7)2
_chemical_formula_sum   'Ba6 As8 H4 O28'
_cell_volume   731.70984283
_cell_formula_units_Z   2
loop_
 _symmetry_equiv_pos_site_id
 _symmetry_equiv_pos_as_xyz
  1  'x, y, z'
loop_
 _atom_site_type_symbol
 _atom_site_label
 _atom_site_symmetry_multiplicity
 _atom_site_fract_x
 _atom_site_fract_y
 _atom_site_fract_z
 _atom_site_occupancy
  Ba  Ba0  1  0.38215100  0.61784900  0.75000000  1
  Ba  Ba1  1  0.61784900  0.38215100  0.25000000  1
  Ba  Ba2  1  0.22320700  0.23284100  0.04621700  1
  Ba  Ba3  1  0.76715900  0.77679300  0.45378300  1
  Ba  Ba4  1  0.77679300  0.76715900  0.95378300  1
  Ba  Ba5  1  0.23284100  0.22320700  0.54621700  1
  As  As6  1  0.73781700  0.29393400  0.96049600  1
  As  As7  1  0.70606600  0.26218300  0.53950400  1
  As  As8  1  0.26218300  0.70606600  0.03950400  1
  As  As9  1  0.29393400  0.73781700  0.46049600  1
  As  As10  1  0.12254400  0.20076400  0.80540300  1
  As  As11  1  0.79923600  0.87745600  0.69459700  1
  As  As12  1  0.87745600  0.79923600  0.19459700  1
  As  As13  1  0.20076400  0.12254400  0.30540300  1
  H  H14  1  0.96932900  0.49648100  0.72574100  1
  H  H15  1  0.50351900  0.03067100  0.77425900  1
  H  H16  1  0.03067100  0.50351900  0.27425900  1
  H  H17  1  0.49648100  0.96932900  0.22574100  1
  O  O18  1  0.94573800  0.12219300  0.89337500  1
  O  O19  1  0.87780700  0.05426200  0.60662500  1
  O  O20  1  0.05426200  0.87780700  0.10662500  1
  O  O21  1  0.12219300  0.94573800  0.39337500  1
  O  O22  1  0.99800100  0.36147700  0.71396100  1
  O  O23  1  0.63852300  0.00199900  0.78603900  1
  O  O24  1  0.00199900  0.63852300  0.28603900  1
  O  O25  1  0.36147700  0.99800100  0.21396100  1
  O  O26  1  0.61122900  0.13416500  0.00723800  1
  O  O27  1  0.86583500  0.38877100  0.49276200  1
  O  O28  1  0.38877100  0.86583500  0.99276200  1
  O  O29  1  0.13416500  0.61122900  0.50723800  1
  O  O30  1  0.64456000  0.49111100  0.88157800  1
  O  O31  1  0.50888900  0.35544000  0.61842200  1
  O  O32  1  0.35544000  0.50888900  0.11842200  1
  O  O33  1  0.49111100  0.64456000  0.38157800  1
  O  O34  1  0.83389100  0.36033000  0.03862200  1
  O  O35  1  0.63967000  0.16610900  0.46137800  1
  O  O36  1  0.16610900  0.63967000  0.96137800  1
  O  O37  1  0.36033000  0.83389100  0.53862200  1
  O  O38  1  0.22651200  0.32151500  0.85177800  1
  O  O39  1  0.67848500  0.77348800  0.64822200  1
  O  O40  1  0.77348800  0.67848500  0.14822200  1
  O  O41  1  0.32151500  0.22651200  0.35177800  1
  O  O42  1  0.27183400  0.01636900  0.75019900  1
  O  O43  1  0.98363100  0.72816600  0.74980100  1
  O  O44  1  0.72816600  0.98363100  0.24980100  1
  O  O45  1  0.01636900  0.27183400  0.25019900  1
