# generated using pymatgen
data_LiCr(GeO3)2
_symmetry_space_group_name_H-M   'P 1'
_cell_length_a   5.58115637
_cell_length_b   6.73825586
_cell_length_c   13.09401303
_cell_angle_alpha   87.20463046
_cell_angle_beta   98.27712272
_cell_angle_gamma   74.06395444
_symmetry_Int_Tables_number   1
_chemical_formula_structural   LiCr(GeO3)2
_chemical_formula_sum   'Li4 Cr4 Ge8 O24'
_cell_volume   466.55130673
_cell_formula_units_Z   4
loop_
 _symmetry_equiv_pos_site_id
 _symmetry_equiv_pos_as_xyz
  1  'x, y, z'
loop_
 _atom_site_type_symbol
 _atom_site_label
 _atom_site_symmetry_multiplicity
 _atom_site_fract_x
 _atom_site_fract_y
 _atom_site_fract_z
 _atom_site_occupancy
  Li  Li0  1  0.88741200  0.72409300  0.13828100  1
  Li  Li1  1  0.38752300  0.72401800  0.63836800  1
  Li  Li2  1  0.61252200  0.27598900  0.36164300  1
  Li  Li3  1  0.11258400  0.27590100  0.86171200  1
  Cr  Cr4  1  0.70610400  0.08772500  0.95623700  1
  Cr  Cr5  1  0.29386000  0.91231100  0.04375900  1
  Cr  Cr6  1  0.20639200  0.08724600  0.45636700  1
  Cr  Cr7  1  0.79365000  0.91276700  0.54361700  1
  Ge  Ge8  1  0.15436300  0.61440400  0.40212300  1
  Ge  Ge9  1  0.65443000  0.61463700  0.90208000  1
  Ge  Ge10  1  0.94025500  0.19611800  0.19261300  1
  Ge  Ge11  1  0.44021700  0.19653800  0.69256300  1
  Ge  Ge12  1  0.34554800  0.38535300  0.09791800  1
  Ge  Ge13  1  0.84564600  0.38559400  0.59788300  1
  Ge  Ge14  1  0.55977500  0.80346200  0.30742700  1
  Ge  Ge15  1  0.05972800  0.80385200  0.80738700  1
  O  O16  1  0.13482000  0.80538900  0.49307600  1
  O  O17  1  0.63476800  0.80568300  0.99293900  1
  O  O18  1  0.95567100  0.01365200  0.09733300  1
  O  O19  1  0.45565100  0.01377500  0.59741400  1
  O  O20  1  0.36521200  0.19432100  0.00705800  1
  O  O21  1  0.86524100  0.19460100  0.50692900  1
  O  O22  1  0.54439500  0.98623200  0.40258300  1
  O  O23  1  0.04429600  0.98635700  0.90265100  1
  O  O24  1  0.25599500  0.36226200  0.45967700  1
  O  O25  1  0.75639700  0.36238800  0.95945300  1
  O  O26  1  0.02158200  0.08188900  0.31890400  1
  O  O27  1  0.52109900  0.08280600  0.81894000  1
  O  O28  1  0.24355900  0.63760900  0.04055200  1
  O  O29  1  0.74401800  0.63774000  0.54033200  1
  O  O30  1  0.47884000  0.91718700  0.18105200  1
  O  O31  1  0.97840900  0.91812400  0.68110400  1
  O  O32  1  0.88250600  0.66668100  0.30486000  1
  O  O33  1  0.38233400  0.66656900  0.80494200  1
  O  O34  1  0.08918300  0.39029800  0.16654700  1
  O  O35  1  0.58920100  0.39072500  0.66656900  1
  O  O36  1  0.61765600  0.33343100  0.19505400  1
  O  O37  1  0.11750500  0.33335000  0.69513900  1
  O  O38  1  0.41082600  0.60926000  0.33344700  1
  O  O39  1  0.91082300  0.60966500  0.83346600  1
