# generated using pymatgen
data_Rb2Na(NO3)3
_symmetry_space_group_name_H-M   'P 1'
_cell_length_a   5.40849500
_cell_length_b   9.19545800
_cell_length_c   9.81518400
_cell_angle_alpha   90.00000000
_cell_angle_beta   90.00000000
_cell_angle_gamma   90.00000000
_symmetry_Int_Tables_number   1
_chemical_formula_structural   Rb2Na(NO3)3
_chemical_formula_sum   'Rb4 Na2 N6 O18'
_cell_volume   488.14432324
_cell_formula_units_Z   2
loop_
 _symmetry_equiv_pos_site_id
 _symmetry_equiv_pos_as_xyz
  1  'x, y, z'
loop_
 _atom_site_type_symbol
 _atom_site_label
 _atom_site_symmetry_multiplicity
 _atom_site_fract_x
 _atom_site_fract_y
 _atom_site_fract_z
 _atom_site_occupancy
  Rb  Rb0  1  0.50000000  0.91885000  0.83282700  1
  Rb  Rb1  1  0.50000000  0.08115000  0.33282700  1
  Rb  Rb2  1  0.50000000  0.62155800  0.16009500  1
  Rb  Rb3  1  0.50000000  0.37844200  0.66009500  1
  Na  Na4  1  0.00000000  0.30006100  0.11662600  1
  Na  Na5  1  0.00000000  0.69993900  0.61662600  1
  N  N6  1  0.00000000  0.94787600  0.12782000  1
  N  N7  1  0.00000000  0.05212400  0.62782000  1
  N  N8  1  0.00000000  0.58727200  0.91512400  1
  N  N9  1  0.00000000  0.41272800  0.41512400  1
  N  N10  1  0.50000000  0.74850300  0.48314100  1
  N  N11  1  0.50000000  0.25149700  0.98314100  1
  O  O12  1  0.00000000  0.06059800  0.20473300  1
  O  O13  1  0.00000000  0.93940200  0.70473300  1
  O  O14  1  0.79643500  0.89352100  0.09107000  1
  O  O15  1  0.20356500  0.89352100  0.09107000  1
  O  O16  1  0.20356500  0.10647900  0.59107000  1
  O  O17  1  0.79643500  0.10647900  0.59107000  1
  O  O18  1  0.00000000  0.54272900  0.03802800  1
  O  O19  1  0.00000000  0.45727100  0.53802800  1
  O  O20  1  0.20290400  0.60978300  0.85419000  1
  O  O21  1  0.79709600  0.60978300  0.85419000  1
  O  O22  1  0.79709600  0.39021700  0.35419100  1
  O  O23  1  0.20290400  0.39021700  0.35419100  1
  O  O24  1  0.50000000  0.70170000  0.60532900  1
  O  O25  1  0.50000000  0.29830000  0.10532900  1
  O  O26  1  0.70376900  0.77170300  0.42296900  1
  O  O27  1  0.29623100  0.77170300  0.42296900  1
  O  O28  1  0.29623100  0.22829700  0.92296900  1
  O  O29  1  0.70376900  0.22829700  0.92296900  1
