# generated using pymatgen
data_BaCoAs2O7
_symmetry_space_group_name_H-M   'P 1'
_cell_length_a   7.71912198
_cell_length_b   7.97970836
_cell_length_c   11.16179544
_cell_angle_alpha   92.91813829
_cell_angle_beta   95.43781200
_cell_angle_gamma   102.88402607
_symmetry_Int_Tables_number   1
_chemical_formula_structural   BaCoAs2O7
_chemical_formula_sum   'Ba4 Co4 As8 O28'
_cell_volume   665.35907327
_cell_formula_units_Z   4
loop_
 _symmetry_equiv_pos_site_id
 _symmetry_equiv_pos_as_xyz
  1  'x, y, z'
loop_
 _atom_site_type_symbol
 _atom_site_label
 _atom_site_symmetry_multiplicity
 _atom_site_fract_x
 _atom_site_fract_y
 _atom_site_fract_z
 _atom_site_occupancy
  Ba  Ba0  1  0.28024300  0.92878800  0.09565000  1
  Ba  Ba1  1  0.28022000  0.92882100  0.59564400  1
  Ba  Ba2  1  0.71976100  0.07121400  0.40434200  1
  Ba  Ba3  1  0.71978700  0.07117700  0.90435300  1
  Co  Co4  1  0.11321700  0.39774400  0.59159000  1
  Co  Co5  1  0.88676900  0.60221800  0.90842800  1
  Co  Co6  1  0.11317200  0.39773000  0.09155000  1
  Co  Co7  1  0.88682900  0.60229300  0.40845100  1
  As  As8  1  0.31157300  0.60608800  0.35292100  1
  As  As9  1  0.31152900  0.60608000  0.85294800  1
  As  As10  1  0.68841900  0.39392300  0.14708500  1
  As  As11  1  0.68847700  0.39390300  0.64704300  1
  As  As12  1  0.22798700  0.21000700  0.34341300  1
  As  As13  1  0.22804300  0.21002500  0.84342300  1
  As  As14  1  0.77202900  0.79000600  0.15657700  1
  As  As15  1  0.77194300  0.78996300  0.65658200  1
  O  O16  1  0.34402500  0.05316600  0.34622100  1
  O  O17  1  0.34410300  0.05321600  0.84621200  1
  O  O18  1  0.65599400  0.94684900  0.15375400  1
  O  O19  1  0.65589100  0.94678200  0.65378800  1
  O  O20  1  0.09878000  0.20072200  0.46110600  1
  O  O21  1  0.09881900  0.20073200  0.96110500  1
  O  O22  1  0.90127600  0.79927800  0.03890900  1
  O  O23  1  0.90119800  0.79926100  0.53890800  1
  O  O24  1  0.14736600  0.58927400  0.45182400  1
  O  O25  1  0.14731400  0.58924400  0.95185400  1
  O  O26  1  0.85261600  0.41071900  0.04817100  1
  O  O27  1  0.85268600  0.41074900  0.54813400  1
  O  O28  1  0.39112200  0.41236900  0.36516300  1
  O  O29  1  0.39114100  0.41240700  0.86517200  1
  O  O30  1  0.60888700  0.58763900  0.13482900  1
  O  O31  1  0.60886400  0.58757900  0.63483000  1
  O  O32  1  0.22149800  0.60730600  0.20657400  1
  O  O33  1  0.22152300  0.60732000  0.70659000  1
  O  O34  1  0.77850400  0.39269500  0.29342200  1
  O  O35  1  0.77847200  0.39267700  0.79340400  1
  O  O36  1  0.10923400  0.20312700  0.20520300  1
  O  O37  1  0.10931100  0.20319600  0.70520700  1
  O  O38  1  0.89073900  0.79689600  0.29480500  1
  O  O39  1  0.89066000  0.79680200  0.79480900  1
  O  O40  1  0.48467000  0.76753400  0.40475400  1
  O  O41  1  0.48458800  0.76754800  0.90481900  1
  O  O42  1  0.51530800  0.23248200  0.09525600  1
  O  O43  1  0.51541100  0.23245300  0.59517800  1
