# generated using pymatgen
data_SrSm3Mn4O12
_symmetry_space_group_name_H-M   'P 1'
_cell_length_a   7.75984700
_cell_length_b   5.46675400
_cell_length_c   5.65238137
_cell_angle_alpha   89.69635752
_cell_angle_beta   90.00000000
_cell_angle_gamma   90.00000000
_symmetry_Int_Tables_number   1
_chemical_formula_structural   SrSm3Mn4O12
_chemical_formula_sum   'Sr1 Sm3 Mn4 O12'
_cell_volume   239.77729018
_cell_formula_units_Z   1
loop_
 _symmetry_equiv_pos_site_id
 _symmetry_equiv_pos_as_xyz
  1  'x, y, z'
loop_
 _atom_site_type_symbol
 _atom_site_label
 _atom_site_symmetry_multiplicity
 _atom_site_fract_x
 _atom_site_fract_y
 _atom_site_fract_z
 _atom_site_occupancy
  Sr  Sr0  1  0.50000000  0.49206100  0.54040500  1
  Sm  Sm1  1  0.00000000  0.98730000  0.94588300  1
  Sm  Sm2  1  0.00000000  0.51415300  0.44112100  1
  Sm  Sm3  1  0.50000000  0.01525300  0.05591400  1
  Mn  Mn4  1  0.25049300  0.49740700  0.99734600  1
  Mn  Mn5  1  0.25089900  0.00203900  0.50092900  1
  Mn  Mn6  1  0.74910100  0.00203900  0.50092900  1
  Mn  Mn7  1  0.74950700  0.49740700  0.99734600  1
  O  O8  1  0.80110200  0.78182500  0.20272800  1
  O  O9  1  0.71835800  0.28268800  0.28898000  1
  O  O10  1  0.71161200  0.20453200  0.81024800  1
  O  O11  1  0.80396000  0.71546200  0.70537100  1
  O  O12  1  0.28838800  0.20453200  0.81024800  1
  O  O13  1  0.19604000  0.71546200  0.70537100  1
  O  O14  1  0.19889800  0.78182500  0.20272800  1
  O  O15  1  0.28164200  0.28268800  0.28898000  1
  O  O16  1  0.50000000  0.59333700  0.98850600  1
  O  O17  1  0.00000000  0.09383300  0.52947500  1
  O  O18  1  0.00000000  0.41004300  0.02086400  1
  O  O19  1  0.50000000  0.93556700  0.46959700  1
