# generated using pymatgen
data_Mn3V17Si12
_symmetry_space_group_name_H-M   'P 1'
_cell_length_a   6.98216110
_cell_length_b   6.98216110
_cell_length_c   13.19255000
_cell_angle_alpha   90.00000000
_cell_angle_beta   90.00000000
_cell_angle_gamma   140.50754987
_symmetry_Int_Tables_number   1
_chemical_formula_structural   Mn3V17Si12
_chemical_formula_sum   'Mn3 V17 Si12'
_cell_volume   409.02473659
_cell_formula_units_Z   1
loop_
 _symmetry_equiv_pos_site_id
 _symmetry_equiv_pos_as_xyz
  1  'x, y, z'
loop_
 _atom_site_type_symbol
 _atom_site_label
 _atom_site_symmetry_multiplicity
 _atom_site_fract_x
 _atom_site_fract_y
 _atom_site_fract_z
 _atom_site_occupancy
  Mn  Mn0  1  0.50303700  0.50303700  0.00000000  1
  Mn  Mn1  1  0.49906500  0.49906500  0.50000000  1
  Mn  Mn2  1  0.99834100  0.99834100  0.00000000  1
  V  V3  1  0.07013200  0.42242200  0.40124300  1
  V  V4  1  0.57412300  0.92921100  0.90345600  1
  V  V5  1  0.42242200  0.07013200  0.59875700  1
  V  V6  1  0.92921100  0.57412300  0.09654400  1
  V  V7  1  0.85147800  0.65381500  0.67764300  1
  V  V8  1  0.34709600  0.15228300  0.17619600  1
  V  V9  1  0.65381500  0.85147800  0.32235700  1
  V  V10  1  0.15228300  0.34709600  0.82380400  1
  V  V11  1  0.65381500  0.85147800  0.67764300  1
  V  V12  1  0.15228300  0.34709600  0.17619600  1
  V  V13  1  0.85147800  0.65381500  0.32235700  1
  V  V14  1  0.34709600  0.15228300  0.82380400  1
  V  V15  1  0.42242200  0.07013200  0.40124300  1
  V  V16  1  0.92921100  0.57412300  0.90345600  1
  V  V17  1  0.07013200  0.42242200  0.59875700  1
  V  V18  1  0.57412300  0.92921100  0.09654400  1
  V  V19  1  0.99886300  0.99886300  0.50000000  1
  Si  Si20  1  0.25061800  0.74948100  0.75107600  1
  Si  Si21  1  0.74948100  0.25061800  0.24892400  1
  Si  Si22  1  0.74948100  0.25061800  0.75107600  1
  Si  Si23  1  0.25061800  0.74948100  0.24892400  1
  Si  Si24  1  0.25646900  0.25646900  0.66356200  1
  Si  Si25  1  0.75091600  0.75091600  0.16064600  1
  Si  Si26  1  0.25646900  0.25646900  0.33643800  1
  Si  Si27  1  0.75091600  0.75091600  0.83935400  1
  Si  Si28  1  0.57904100  0.90432100  0.50000000  1
  Si  Si29  1  0.09185300  0.40939100  0.00000000  1
  Si  Si30  1  0.90432100  0.57904100  0.50000000  1
  Si  Si31  1  0.40939100  0.09185300  0.00000000  1
