# generated using pymatgen
data_RbAgTeS3
_symmetry_space_group_name_H-M   'P 1'
_cell_length_a   11.00699200
_cell_length_b   7.76295000
_cell_length_c   8.74913593
_cell_angle_alpha   73.92260487
_cell_angle_beta   90.00000000
_cell_angle_gamma   90.00000000
_symmetry_Int_Tables_number   1
_chemical_formula_structural   RbAgTeS3
_chemical_formula_sum   'Rb4 Ag4 Te4 S12'
_cell_volume   718.34586187
_cell_formula_units_Z   4
loop_
 _symmetry_equiv_pos_site_id
 _symmetry_equiv_pos_as_xyz
  1  'x, y, z'
loop_
 _atom_site_type_symbol
 _atom_site_label
 _atom_site_symmetry_multiplicity
 _atom_site_fract_x
 _atom_site_fract_y
 _atom_site_fract_z
 _atom_site_occupancy
  Rb  Rb0  1  0.24022000  0.47464300  0.88432100  1
  Rb  Rb1  1  0.75978000  0.52535700  0.11567900  1
  Rb  Rb2  1  0.74022000  0.52535700  0.61567900  1
  Rb  Rb3  1  0.25978000  0.47464300  0.38432100  1
  Ag  Ag4  1  0.24994000  0.91904700  0.51988600  1
  Ag  Ag5  1  0.75006000  0.08095300  0.48011400  1
  Ag  Ag6  1  0.74994000  0.08095300  0.98011400  1
  Ag  Ag7  1  0.25006000  0.91904700  0.01988600  1
  Te  Te8  1  0.50175000  0.91977100  0.77156400  1
  Te  Te9  1  0.49825000  0.08022900  0.22843600  1
  Te  Te10  1  0.00175000  0.08022900  0.72843600  1
  Te  Te11  1  0.99825000  0.91977100  0.27156400  1
  S  S12  1  0.05216200  0.74067000  0.53047400  1
  S  S13  1  0.94783800  0.25933000  0.46952600  1
  S  S14  1  0.55216200  0.25933000  0.96952600  1
  S  S15  1  0.44783800  0.74067000  0.03047400  1
  S  S16  1  0.71900500  0.87412200  0.78058600  1
  S  S17  1  0.28099500  0.12587800  0.21941400  1
  S  S18  1  0.21900500  0.12587800  0.71941400  1
  S  S19  1  0.78099500  0.87412200  0.28058600  1
  S  S20  1  0.44600200  0.73590500  0.60334800  1
  S  S21  1  0.55399800  0.26409500  0.39665200  1
  S  S22  1  0.94600200  0.26409500  0.89665200  1
  S  S23  1  0.05399800  0.73590500  0.10334800  1
