# generated using pymatgen
data_Sc6Te2Ir
_symmetry_space_group_name_H-M   'P 1'
_cell_length_a   7.80292724
_cell_length_b   7.80292724
_cell_length_c   3.81824600
_cell_angle_alpha   90.00000000
_cell_angle_beta   90.00000000
_cell_angle_gamma   119.99999360
_symmetry_Int_Tables_number   1
_chemical_formula_structural   Sc6Te2Ir
_chemical_formula_sum   'Sc6 Te2 Ir1'
_cell_volume   201.33055014
_cell_formula_units_Z   1
loop_
 _symmetry_equiv_pos_site_id
 _symmetry_equiv_pos_as_xyz
  1  'x, y, z'
loop_
 _atom_site_type_symbol
 _atom_site_label
 _atom_site_symmetry_multiplicity
 _atom_site_fract_x
 _atom_site_fract_y
 _atom_site_fract_z
 _atom_site_occupancy
  Sc  Sc0  1  0.24283100  0.00000000  0.50000000  1
  Sc  Sc1  1  0.00000000  0.24283100  0.50000000  1
  Sc  Sc2  1  0.75716900  0.75716900  0.50000000  1
  Sc  Sc3  1  0.61456000  0.00000000  0.00000000  1
  Sc  Sc4  1  0.00000000  0.61456000  0.00000000  1
  Sc  Sc5  1  0.38544000  0.38544000  0.00000000  1
  Te  Te6  1  0.33333300  0.66666700  0.50000000  1
  Te  Te7  1  0.66666700  0.33333300  0.50000000  1
  Ir  Ir8  1  0.00000000  0.00000000  0.00000000  1
