# generated using pymatgen
data_Tm3Sn
_symmetry_space_group_name_H-M   'P 1'
_cell_length_a   6.10670453
_cell_length_b   6.10670453
_cell_length_c   6.10670453
_cell_angle_alpha   135.80166904
_cell_angle_beta   135.80166904
_cell_angle_gamma   64.28710743
_symmetry_Int_Tables_number   1
_chemical_formula_structural   Tm3Sn
_chemical_formula_sum   'Tm3 Sn1'
_cell_volume   109.16459574
_cell_formula_units_Z   1
loop_
 _symmetry_equiv_pos_site_id
 _symmetry_equiv_pos_as_xyz
  1  'x, y, z'
loop_
 _atom_site_type_symbol
 _atom_site_label
 _atom_site_symmetry_multiplicity
 _atom_site_fract_x
 _atom_site_fract_y
 _atom_site_fract_z
 _atom_site_occupancy
  Tm  Tm0  1  0.75000000  0.25000000  0.50000000  1
  Tm  Tm1  1  0.25000000  0.75000000  0.50000000  1
  Tm  Tm2  1  0.50000000  0.50000000  0.00000000  1
  Sn  Sn3  1  0.00000000  0.00000000  0.00000000  1
