# generated using pymatgen
data_Sr2Ca49Mo12N56O3
_symmetry_space_group_name_H-M   'P 1'
_cell_length_a   10.63369400
_cell_length_b   12.44386663
_cell_length_c   16.01338568
_cell_angle_alpha   102.52825243
_cell_angle_beta   95.36279047
_cell_angle_gamma   110.07797057
_symmetry_Int_Tables_number   1
_chemical_formula_structural   Sr2Ca49Mo12N56O3
_chemical_formula_sum   'Sr2 Ca49 Mo12 N56 O3'
_cell_volume   1909.92948134
_cell_formula_units_Z   1
loop_
 _symmetry_equiv_pos_site_id
 _symmetry_equiv_pos_as_xyz
  1  'x, y, z'
loop_
 _atom_site_type_symbol
 _atom_site_label
 _atom_site_symmetry_multiplicity
 _atom_site_fract_x
 _atom_site_fract_y
 _atom_site_fract_z
 _atom_site_occupancy
  Sr  Sr0  1  0.56853700  0.13997700  0.65941300  1
  Sr  Sr1  1  0.43146300  0.86002300  0.34058700  1
  Ca  Ca2  1  0.51196100  0.44992300  0.19996100  1
  Ca  Ca3  1  0.48803900  0.55007700  0.80003900  1
  Ca  Ca4  1  0.59029600  0.19804900  0.25521100  1
  Ca  Ca5  1  0.40970400  0.80195100  0.74478900  1
  Ca  Ca6  1  0.18106200  0.52117700  0.67093200  1
  Ca  Ca7  1  0.81893800  0.47882300  0.32906800  1
  Ca  Ca8  1  0.25469600  0.27257200  0.70644100  1
  Ca  Ca9  1  0.74530400  0.72742800  0.29355900  1
  Ca  Ca10  1  0.13718100  0.59443200  0.25481300  1
  Ca  Ca11  1  0.86281900  0.40556800  0.74518700  1
  Ca  Ca12  1  0.43824600  0.67507500  0.15378500  1
  Ca  Ca13  1  0.56175400  0.32492500  0.84621500  1
  Ca  Ca14  1  0.21363400  0.36418500  0.28431800  1
  Ca  Ca15  1  0.78636600  0.63581500  0.71568200  1
  Ca  Ca16  1  0.06285200  0.82446300  0.21801200  1
  Ca  Ca17  1  0.93714800  0.17553700  0.78198800  1
  Ca  Ca18  1  0.23596700  0.30661700  0.49479600  1
  Ca  Ca19  1  0.76403300  0.69338300  0.50520400  1
  Ca  Ca20  1  0.89868100  0.30727900  0.16913900  1
  Ca  Ca21  1  0.10131900  0.69272100  0.83086100  1
  Ca  Ca22  1  0.65761200  0.01207800  0.06528300  1
  Ca  Ca23  1  0.34238800  0.98792200  0.93471700  1
  Ca  Ca24  1  0.53121400  0.38202800  0.41495100  1
  Ca  Ca25  1  0.46878600  0.61797200  0.58504900  1
  Ca  Ca26  1  0.98137300  0.07033600  0.17995000  1
  Ca  Ca27  1  0.01862700  0.92966400  0.82005000  1
  Ca  Ca28  1  0.14190500  0.64152900  0.05234700  1
  Ca  Ca29  1  0.85809500  0.35847100  0.94765300  1
  Ca  Ca30  1  0.35772500  0.92348500  0.14507000  1
  Ca  Ca31  1  0.64227500  0.07651500  0.85493000  1
  Ca  Ca32  1  0.04082400  0.89342800  0.02144600  1
  Ca  Ca33  1  0.95917600  0.10657200  0.97855400  1
  Ca  Ca34  1  0.15008200  0.54306500  0.45922200  1
  Ca  Ca35  1  0.84991800  0.45693500  0.54077800  1
  Ca  Ca36  1  0.28180300  0.17052000  0.09704600  1
  Ca  Ca37  1  0.71819700  0.82948000  0.90295400  1
  Ca  Ca38  1  0.80616200  0.54395600  0.12492400  1
  Ca  Ca39  1  0.19383800  0.45604400  0.87507600  1
  Ca  Ca40  1  0.09569600  0.73071700  0.62732500  1
  Ca  Ca41  1  0.90430400  0.26928300  0.37267500  1
  Ca  Ca42  1  0.30738200  0.03624700  0.47437400  1
  Ca  Ca43  1  0.69261800  0.96375400  0.52562600  1
  Ca  Ca44  1  0.26200800  0.21961600  0.90402900  1
  Ca  Ca45  1  0.73799200  0.78038400  0.09597100  1
  Ca  Ca46  1  0.61996300  0.16267000  0.45417000  1
  Ca  Ca47  1  0.38003700  0.83733000  0.54583000  1
  Ca  Ca48  1  0.96724400  0.02411300  0.40196700  1
  Ca  Ca49  1  0.03275600  0.97588700  0.59803300  1
  Ca  Ca50  1  0.50000000  0.50000000  0.00000000  1
  Mo  Mo51  1  0.27160500  0.01407000  0.73744400  1
  Mo  Mo52  1  0.72839500  0.98593000  0.26255600  1
  Mo  Mo53  1  0.47135800  0.60233000  0.38400200  1
  Mo  Mo54  1  0.52864200  0.39767000  0.61599800  1
  Mo  Mo55  1  0.27980400  0.12039900  0.28366400  1
  Mo  Mo56  1  0.72019600  0.87960100  0.71633600  1
  Mo  Mo57  1  0.59055500  0.24343400  0.06942900  1
  Mo  Mo58  1  0.40944500  0.75656600  0.93057100  1
  Mo  Mo59  1  0.02189800  0.74178200  0.40688400  1
  Mo  Mo60  1  0.97810200  0.25821800  0.59311600  1
  Mo  Mo61  1  0.12678000  0.38178800  0.05541600  1
  Mo  Mo62  1  0.87322000  0.61821200  0.94458400  1
  N  N63  1  0.72964800  0.02305700  0.38303400  1
  N  N64  1  0.27035200  0.97694300  0.61696600  1
  N  N65  1  0.71848600  0.32465200  0.39505800  1
  N  N66  1  0.28151400  0.67534800  0.60494200  1
  N  N67  1  0.20982900  0.79704100  0.41139000  1
  N  N68  1  0.79017100  0.20295900  0.58861000  1
  N  N69  1  0.79402100  0.12721400  0.22512500  1
  N  N70  1  0.20597900  0.87278600  0.77487600  1
  N  N71  1  0.05307600  0.29303100  0.93615300  1
  N  N72  1  0.94692400  0.70696900  0.06384700  1
  N  N73  1  0.71693000  0.19979500  0.00572500  1
  N  N74  1  0.28307000  0.80020500  0.99427500  1
  N  N75  1  0.02852300  0.42224300  0.31134800  1
  N  N76  1  0.97147700  0.57775700  0.68865200  1
  N  N77  1  0.40127100  0.05927000  0.32831700  1
  N  N78  1  0.59872900  0.94073000  0.67168300  1
  N  N79  1  0.35611900  0.48322900  0.43058300  1
  N  N80  1  0.64388100  0.51677100  0.56941700  1
  N  N81  1  0.45272900  0.24958300  0.53142300  1
  N  N82  1  0.54727100  0.75041700  0.46857700  1
  N  N83  1  0.63049900  0.61404800  0.15284200  1
  N  N84  1  0.36950100  0.38595200  0.84715800  1
  N  N85  1  0.15775000  0.15331700  0.35595200  1
  N  N86  1  0.84225000  0.84668300  0.64404800  1
  N  N87  1  0.48605600  0.10291000  0.09712100  1
  N  N88  1  0.51394400  0.89709000  0.90287900  1
  N  N89  1  0.05806800  0.14669600  0.55286700  1
  N  N90  1  0.94193200  0.85330400  0.44713300  1
  N  N91  1  0.28598200  0.50230000  0.04914200  1
  N  N92  1  0.71401800  0.49770000  0.95085800  1
  N  N93  1  0.69007200  0.35686500  0.17709700  1
  N  N94  1  0.30992800  0.64313500  0.82290300  1
  N  N95  1  0.15221100  0.04415700  0.95791400  1
  N  N96  1  0.84778900  0.95584300  0.04208600  1
  N  N97  1  0.37891300  0.44122300  0.64155400  1
  N  N98  1  0.62108700  0.55877700  0.35844600  1
  N  N99  1  0.14211900  0.08756000  0.75347100  1
  N  N100  1  0.85788100  0.91244000  0.24652900  1
  N  N101  1  0.44064400  0.11297900  0.80754400  1
  N  N102  1  0.55935600  0.88702100  0.19245600  1
  N  N103  1  0.46204100  0.29728200  0.02339100  1
  N  N104  1  0.53795900  0.70271800  0.97660900  1
  N  N105  1  0.37489600  0.59958300  0.27881000  1
  N  N106  1  0.62510400  0.40041700  0.72119000  1
  N  N107  1  0.03931700  0.37236200  0.52801700  1
  N  N108  1  0.96068300  0.62763800  0.47198300  1
  N  N109  1  0.17805500  0.01021500  0.17393800  1
  N  N110  1  0.82194500  0.98978500  0.82606200  1
  N  N111  1  0.05966700  0.33399000  0.71363000  1
  N  N112  1  0.94033300  0.66601000  0.28637000  1
  N  N113  1  0.11365800  0.26894700  0.12321200  1
  N  N114  1  0.88634200  0.73105300  0.87678800  1
  N  N115  1  0.38315300  0.26262200  0.25841800  1
  N  N116  1  0.61684700  0.73737800  0.74158200  1
  N  N117  1  0.00960700  0.45851000  0.09435500  1
  N  N118  1  0.99039300  0.54149000  0.90564500  1
  O  O119  1  0.23751600  0.75686400  0.19296800  1
  O  O120  1  0.76248400  0.24313600  0.80703200  1
  O  O121  1  0.50000000  0.00000000  0.50000000  1
