# generated using pymatgen
data_Sc11Ge10
_symmetry_space_group_name_H-M   'P 1'
_cell_length_a   10.61182544
_cell_length_b   10.61182544
_cell_length_c   10.61182544
_cell_angle_alpha   121.65728644
_cell_angle_beta   121.65728644
_cell_angle_gamma   87.15269105
_symmetry_Int_Tables_number   1
_chemical_formula_structural   Sc11Ge10
_chemical_formula_sum   'Sc22 Ge20'
_cell_volume   822.72559652
_cell_formula_units_Z   2
loop_
 _symmetry_equiv_pos_site_id
 _symmetry_equiv_pos_as_xyz
  1  'x, y, z'
loop_
 _atom_site_type_symbol
 _atom_site_label
 _atom_site_symmetry_multiplicity
 _atom_site_fract_x
 _atom_site_fract_y
 _atom_site_fract_z
 _atom_site_occupancy
  Sc  Sc0  1  0.81065000  0.06259100  0.25194100  1
  Sc  Sc1  1  0.81065000  0.55871000  0.74805900  1
  Sc  Sc2  1  0.06259100  0.81065000  0.25194100  1
  Sc  Sc3  1  0.55871000  0.81065000  0.74805900  1
  Sc  Sc4  1  0.18935000  0.93740900  0.74805900  1
  Sc  Sc5  1  0.18935000  0.44129000  0.25194100  1
  Sc  Sc6  1  0.93740900  0.18935000  0.74805900  1
  Sc  Sc7  1  0.44129000  0.18935000  0.25194100  1
  Sc  Sc8  1  0.17647900  0.17647900  0.35295800  1
  Sc  Sc9  1  0.82352100  0.82352100  0.64704200  1
  Sc  Sc10  1  0.17647900  0.82352100  0.00000000  1
  Sc  Sc11  1  0.82352100  0.17647900  0.00000000  1
  Sc  Sc12  1  0.66192800  0.66192800  0.00000000  1
  Sc  Sc13  1  0.33807200  0.33807200  0.00000000  1
  Sc  Sc14  1  0.60250600  0.92963700  0.32713100  1
  Sc  Sc15  1  0.60250600  0.27537400  0.67286900  1
  Sc  Sc16  1  0.92963700  0.60250600  0.32713100  1
  Sc  Sc17  1  0.27537400  0.60250600  0.67286900  1
  Sc  Sc18  1  0.39749400  0.07036300  0.67286900  1
  Sc  Sc19  1  0.39749400  0.72462600  0.32713100  1
  Sc  Sc20  1  0.07036300  0.39749400  0.67286900  1
  Sc  Sc21  1  0.72462600  0.39749400  0.32713100  1
  Ge  Ge22  1  0.35877500  0.00000000  0.35877500  1
  Ge  Ge23  1  0.64122500  0.00000000  0.64122500  1
  Ge  Ge24  1  0.00000000  0.64122500  0.64122500  1
  Ge  Ge25  1  0.00000000  0.35877500  0.35877500  1
  Ge  Ge26  1  0.88720800  0.88720800  0.00000000  1
  Ge  Ge27  1  0.11279200  0.11279200  0.00000000  1
  Ge  Ge28  1  0.37446700  0.37446700  0.74893400  1
  Ge  Ge29  1  0.62553300  0.62553300  0.25106600  1
  Ge  Ge30  1  0.37446700  0.62553300  0.00000000  1
  Ge  Ge31  1  0.62553300  0.37446700  0.00000000  1
  Ge  Ge32  1  0.75000000  0.25000000  0.50000000  1
  Ge  Ge33  1  0.25000000  0.75000000  0.50000000  1
  Ge  Ge34  1  0.88573200  0.88573200  0.41535200  1
  Ge  Ge35  1  0.47038000  0.47038000  0.58464800  1
  Ge  Ge36  1  0.88573200  0.47038000  0.00000000  1
  Ge  Ge37  1  0.47038000  0.88573200  0.00000000  1
  Ge  Ge38  1  0.11426800  0.11426800  0.58464800  1
  Ge  Ge39  1  0.52962000  0.52962000  0.41535200  1
  Ge  Ge40  1  0.11426800  0.52962000  0.00000000  1
  Ge  Ge41  1  0.52962000  0.11426800  0.00000000  1
