# generated using pymatgen
data_Ta11(Co52B15)2
_symmetry_space_group_name_H-M   'P 1'
_cell_length_a   10.50687700
_cell_length_b   12.87809102
_cell_length_c   12.87676851
_cell_angle_alpha   99.58262932
_cell_angle_beta   114.07788265
_cell_angle_gamma   65.92474661
_symmetry_Int_Tables_number   1
_chemical_formula_structural   Ta11(Co52B15)2
_chemical_formula_sum   'Ta11 Co104 B30'
_cell_volume   1452.36114466
_cell_formula_units_Z   1
loop_
 _symmetry_equiv_pos_site_id
 _symmetry_equiv_pos_as_xyz
  1  'x, y, z'
loop_
 _atom_site_type_symbol
 _atom_site_label
 _atom_site_symmetry_multiplicity
 _atom_site_fract_x
 _atom_site_fract_y
 _atom_site_fract_z
 _atom_site_occupancy
  Ta  Ta0  1  0.25001400  0.50000000  0.50000000  1
  Ta  Ta1  1  0.84994900  0.70007400  0.90002600  1
  Ta  Ta2  1  0.44991400  0.90010900  0.29993100  1
  Ta  Ta3  1  0.05009200  0.09989100  0.70006900  1
  Ta  Ta4  1  0.64999700  0.29992600  0.09997400  1
  Ta  Ta5  1  0.15005100  0.29992600  0.09997400  1
  Ta  Ta6  1  0.74998600  0.50000000  0.50000000  1
  Ta  Ta7  1  0.35000300  0.70007400  0.90002600  1
  Ta  Ta8  1  0.94990800  0.90010900  0.29993100  1
  Ta  Ta9  1  0.55008600  0.09989100  0.70006900  1
  Ta  Ta10  1  0.00000000  0.00000000  0.00000000  1
  Co  Co11  1  0.86123300  0.06938100  0.79184800  1
  Co  Co12  1  0.46456800  0.26799100  0.19712700  1
  Co  Co13  1  0.06471100  0.46777700  0.59719900  1
  Co  Co14  1  0.66487700  0.66722800  0.99698100  1
  Co  Co15  1  0.26655700  0.86661500  0.39973000  1
  Co  Co16  1  0.26794000  0.53503000  0.73238400  1
  Co  Co17  1  0.86654300  0.73352300  0.13344500  1
  Co  Co18  1  0.46768500  0.93519400  0.53264100  1
  Co  Co19  1  0.06945000  0.13893900  0.93066200  1
  Co  Co20  1  0.66742600  0.33546600  0.33266900  1
  Co  Co21  1  0.93501000  0.53262800  0.06485400  1
  Co  Co22  1  0.53563700  0.73234900  0.46497200  1
  Co  Co23  1  0.13878900  0.93064800  0.86108700  1
  Co  Co24  1  0.73315600  0.13343900  0.26641200  1
  Co  Co25  1  0.33466500  0.33274200  0.66460000  1
  Co  Co26  1  0.93064100  0.20814100  0.06942400  1
  Co  Co27  1  0.53247200  0.40283800  0.46778300  1
  Co  Co28  1  0.13323800  0.60015800  0.86663300  1
  Co  Co29  1  0.73262900  0.80274500  0.26800300  1
  Co  Co30  1  0.33212900  0.00306700  0.66732600  1
  Co  Co31  1  0.92941400  0.53503000  0.73238400  1
  Co  Co32  1  0.53337900  0.73352300  0.13344500  1
  Co  Co33  1  0.12976200  0.93519400  0.53264100  1
  Co  Co34  1  0.72227300  0.13893900  0.93066200  1
  Co  Co35  1  0.32977700  0.33546600  0.33266900  1
  Co  Co36  1  0.46436300  0.26765100  0.53502800  1
  Co  Co37  1  0.06499000  0.46737200  0.93514600  1
  Co  Co38  1  0.66533500  0.66725800  0.33540000  1
  Co  Co39  1  0.26684400  0.86656100  0.73358800  1
  Co  Co40  1  0.86121100  0.06935200  0.13891300  1
  Co  Co41  1  0.46752800  0.59716200  0.53221700  1
  Co  Co42  1  0.06935900  0.79185900  0.93057600  1
  Co  Co43  1  0.66787100  0.99693300  0.33267400  1
  Co  Co44  1  0.26737100  0.19725500  0.73199700  1
  Co  Co45  1  0.86676200  0.39984200  0.13336700  1
  Co  Co46  1  0.13345700  0.26647700  0.86655500  1
  Co  Co47  1  0.73206000  0.46497000  0.26761600  1
  Co  Co48  1  0.33257400  0.66453400  0.66733100  1
  Co  Co49  1  0.93055000  0.86106100  0.06933800  1
  Co  Co50  1  0.53231500  0.06480600  0.46735900  1
  Co  Co51  1  0.59721500  0.53262800  0.06485400  1
  Co  Co52  1  0.19698600  0.73234900  0.46497200  1
  Co  Co53  1  0.79165000  0.93064800  0.86108700  1
  Co  Co54  1  0.39981700  0.13343900  0.26641200  1
  Co  Co55  1  0.99719300  0.33274200  0.66460000  1
  Co  Co56  1  0.53543200  0.73200900  0.80287300  1
  Co  Co57  1  0.13876700  0.93061900  0.20815200  1
  Co  Co58  1  0.73344300  0.13338500  0.60027000  1
  Co  Co59  1  0.33512300  0.33277200  0.00301900  1
  Co  Co60  1  0.93528900  0.53222300  0.40280100  1
  Co  Co61  1  0.46662100  0.26647700  0.86655500  1
  Co  Co62  1  0.07058600  0.46497000  0.26761600  1
  Co  Co63  1  0.67022300  0.66453400  0.66733100  1
  Co  Co64  1  0.27772700  0.86106100  0.06933800  1
  Co  Co65  1  0.87023900  0.06480600  0.46735900  1
  Co  Co66  1  0.80301400  0.26765100  0.53502800  1
  Co  Co67  1  0.40278500  0.46737200  0.93514600  1
  Co  Co68  1  0.00280700  0.66725800  0.33540000  1
  Co  Co69  1  0.60018300  0.86656100  0.73358800  1
  Co  Co70  1  0.20835000  0.06935200  0.13891300  1
  Co  Co71  1  0.67658400  0.35371600  0.93951100  1
  Co  Co72  1  0.27673000  0.55352600  0.33941900  1
  Co  Co73  1  0.87682300  0.75326900  0.73935800  1
  Co  Co74  1  0.47720300  0.95348000  0.13950100  1
  Co  Co75  1  0.07684700  0.15339700  0.53938200  1
  Co  Co76  1  0.86254800  0.26064900  0.75325000  1
  Co  Co77  1  0.46255600  0.46059800  0.15340900  1
  Co  Co78  1  0.06269500  0.66058100  0.55355100  1
  Co  Co79  1  0.66232400  0.86047400  0.95344600  1
  Co  Co80  1  0.26287400  0.06053000  0.35372800  1
  Co  Co81  1  0.76974600  0.53940200  0.84659100  1
  Co  Co82  1  0.36994700  0.73935100  0.24675000  1
  Co  Co83  1  0.96967600  0.93947000  0.64627200  1
  Co  Co84  1  0.56935100  0.13952600  0.04655400  1
  Co  Co85  1  0.16972500  0.33941900  0.44644900  1
  Co  Co86  1  0.49083600  0.44647400  0.66058100  1
  Co  Co87  1  0.09078900  0.64628400  0.06048900  1
  Co  Co88  1  0.69086200  0.84660300  0.46061800  1
  Co  Co89  1  0.29118200  0.04652000  0.86049900  1
  Co  Co90  1  0.89073400  0.24673100  0.26064200  1
  Co  Co91  1  0.72327000  0.44647400  0.66058100  1
  Co  Co92  1  0.32341600  0.64628400  0.06048900  1
  Co  Co93  1  0.92315300  0.84660300  0.46061800  1
  Co  Co94  1  0.52279700  0.04652000  0.86049900  1
  Co  Co95  1  0.12317700  0.24673100  0.26064200  1
  Co  Co96  1  0.53744400  0.53940200  0.84659100  1
  Co  Co97  1  0.13745200  0.73935100  0.24675000  1
  Co  Co98  1  0.73712600  0.93947000  0.64627200  1
  Co  Co99  1  0.33767600  0.13952600  0.04655400  1
  Co  Co100  1  0.93730500  0.33941900  0.44644900  1
  Co  Co101  1  0.63005300  0.26064900  0.75325000  1
  Co  Co102  1  0.23025400  0.46059800  0.15340900  1
  Co  Co103  1  0.83027500  0.66058100  0.55355100  1
  Co  Co104  1  0.43064900  0.86047400  0.95344600  1
  Co  Co105  1  0.03032400  0.06053000  0.35372800  1
  Co  Co106  1  0.90921100  0.35371600  0.93951100  1
  Co  Co107  1  0.50916400  0.55352600  0.33941900  1
  Co  Co108  1  0.10926600  0.75326900  0.73935800  1
  Co  Co109  1  0.70881800  0.95348000  0.13950100  1
  Co  Co110  1  0.30913800  0.15339700  0.53938200  1
  Co  Co111  1  0.59993200  0.20022600  0.40008900  1
  Co  Co112  1  0.19979500  0.40010200  0.79969300  1
  Co  Co113  1  0.80020500  0.59989800  0.20030700  1
  Co  Co114  1  0.40006800  0.79977400  0.59991100  1
  B  B115  1  0.47380200  0.40035400  0.79981600  1
  B  B116  1  0.07434000  0.59964600  0.20018400  1
  B  B117  1  0.67400600  0.79981000  0.59972200  1
  B  B118  1  0.27084600  0.00000000  0.00000000  1
  B  B119  1  0.87409500  0.20019000  0.40027800  1
  B  B120  1  0.74499300  0.49071600  0.98070300  1
  B  B121  1  0.34557700  0.68996700  0.38112100  1
  B  B122  1  0.94585400  0.89169300  0.78340100  1
  B  B123  1  0.54523800  0.09042300  0.18089800  1
  B  B124  1  0.14519600  0.29037400  0.58076500  1
  B  B125  1  0.83753300  0.21662000  0.89168600  1
  B  B126  1  0.43555100  0.41923400  0.29033600  1
  B  B127  1  0.03555700  0.61890200  0.69001600  1
  B  B128  1  0.63559600  0.81917300  0.09036500  1
  B  B129  1  0.23571100  0.01924300  0.49066400  1
  B  B130  1  0.92566000  0.40035400  0.79981600  1
  B  B131  1  0.52619800  0.59964600  0.20018400  1
  B  B132  1  0.12590500  0.79981000  0.59972200  1
  B  B133  1  0.72915400  0.00000000  0.00000000  1
  B  B134  1  0.32599400  0.20019000  0.40027800  1
  B  B135  1  0.65442300  0.31003300  0.61887900  1
  B  B136  1  0.25500700  0.50928400  0.01929700  1
  B  B137  1  0.85480400  0.70962600  0.41923500  1
  B  B138  1  0.45476200  0.90957700  0.81910200  1
  B  B139  1  0.05414600  0.10830700  0.21659900  1
  B  B140  1  0.56444900  0.58076600  0.70966400  1
  B  B141  1  0.16246700  0.78338000  0.10831400  1
  B  B142  1  0.76428900  0.98075700  0.50933600  1
  B  B143  1  0.36440400  0.18082700  0.90963500  1
  B  B144  1  0.96444300  0.38109800  0.30998400  1
