# generated using pymatgen
data_Nb3Ge
_symmetry_space_group_name_H-M   'P 1'
_cell_length_a   10.35914900
_cell_length_b   10.35914900
_cell_length_c   5.30627800
_cell_angle_alpha   90.00000000
_cell_angle_beta   90.00000000
_cell_angle_gamma   90.00000000
_symmetry_Int_Tables_number   1
_chemical_formula_structural   Nb3Ge
_chemical_formula_sum   'Nb24 Ge8'
_cell_volume   569.42713496
_cell_formula_units_Z   8
loop_
 _symmetry_equiv_pos_site_id
 _symmetry_equiv_pos_as_xyz
  1  'x, y, z'
loop_
 _atom_site_type_symbol
 _atom_site_label
 _atom_site_symmetry_multiplicity
 _atom_site_fract_x
 _atom_site_fract_y
 _atom_site_fract_z
 _atom_site_occupancy
  Nb  Nb0  1  0.91672000  0.59727900  0.53585900  1
  Nb  Nb1  1  0.08328000  0.40272100  0.53585900  1
  Nb  Nb2  1  0.90272100  0.41672000  0.03585900  1
  Nb  Nb3  1  0.09727900  0.58328000  0.03585900  1
  Nb  Nb4  1  0.58328000  0.90272100  0.96414100  1
  Nb  Nb5  1  0.41672000  0.09727900  0.96414100  1
  Nb  Nb6  1  0.59727900  0.08328000  0.46414100  1
  Nb  Nb7  1  0.40272100  0.91672000  0.46414100  1
  Nb  Nb8  1  0.85118000  0.97837800  0.72078100  1
  Nb  Nb9  1  0.14882000  0.02162200  0.72078100  1
  Nb  Nb10  1  0.52162200  0.35118000  0.22078100  1
  Nb  Nb11  1  0.47837800  0.64882000  0.22078100  1
  Nb  Nb12  1  0.64882000  0.52162200  0.77921900  1
  Nb  Nb13  1  0.35118000  0.47837800  0.77921900  1
  Nb  Nb14  1  0.97837800  0.14882000  0.27921900  1
  Nb  Nb15  1  0.02162200  0.85118000  0.27921900  1
  Nb  Nb16  1  0.81390900  0.71411300  0.01420800  1
  Nb  Nb17  1  0.18609100  0.28588700  0.01420800  1
  Nb  Nb18  1  0.78588700  0.31390900  0.51420800  1
  Nb  Nb19  1  0.21411300  0.68609100  0.51420800  1
  Nb  Nb20  1  0.68609100  0.78588700  0.48579200  1
  Nb  Nb21  1  0.31390900  0.21411300  0.48579200  1
  Nb  Nb22  1  0.71411300  0.18609100  0.98579200  1
  Nb  Nb23  1  0.28588700  0.81390900  0.98579200  1
  Ge  Ge24  1  0.79633800  0.96735800  0.21724800  1
  Ge  Ge25  1  0.20366200  0.03264200  0.21724800  1
  Ge  Ge26  1  0.53264200  0.29633800  0.71724800  1
  Ge  Ge27  1  0.46735800  0.70366200  0.71724800  1
  Ge  Ge28  1  0.70366200  0.53264200  0.28275200  1
  Ge  Ge29  1  0.29633800  0.46735800  0.28275200  1
  Ge  Ge30  1  0.96735800  0.20366200  0.78275200  1
  Ge  Ge31  1  0.03264200  0.79633800  0.78275200  1
