# generated using pymatgen
data_SrPrMn2O6
_symmetry_space_group_name_H-M   'P 1'
_cell_length_a   5.53448300
_cell_length_b   5.56530100
_cell_length_c   7.77145600
_cell_angle_alpha   90.00000000
_cell_angle_beta   90.00000000
_cell_angle_gamma   90.00000000
_symmetry_Int_Tables_number   1
_chemical_formula_structural   SrPrMn2O6
_chemical_formula_sum   'Sr2 Pr2 Mn4 O12'
_cell_volume   239.36911188
_cell_formula_units_Z   2
loop_
 _symmetry_equiv_pos_site_id
 _symmetry_equiv_pos_as_xyz
  1  'x, y, z'
loop_
 _atom_site_type_symbol
 _atom_site_label
 _atom_site_symmetry_multiplicity
 _atom_site_fract_x
 _atom_site_fract_y
 _atom_site_fract_z
 _atom_site_occupancy
  Sr  Sr0  1  0.23604600  0.49873600  0.50000000  1
  Sr  Sr1  1  0.76395400  0.99873600  0.00000000  1
  Pr  Pr2  1  0.72142000  0.00922400  0.50000000  1
  Pr  Pr3  1  0.27858000  0.50922400  0.00000000  1
  Mn  Mn4  1  0.24717600  0.00025800  0.75027500  1
  Mn  Mn5  1  0.75282400  0.50025800  0.25027500  1
  Mn  Mn6  1  0.24717600  0.00025800  0.24972500  1
  Mn  Mn7  1  0.75282400  0.50025800  0.74972500  1
  O  O8  1  0.75353200  0.57255900  0.50000000  1
  O  O9  1  0.26345800  0.94783500  0.50000000  1
  O  O10  1  0.73654200  0.44783500  0.00000000  1
  O  O11  1  0.24646800  0.07255900  0.00000000  1
  O  O12  1  0.97234700  0.22219000  0.71484900  1
  O  O13  1  0.48597200  0.26337500  0.28122800  1
  O  O14  1  0.51402800  0.76337500  0.21877200  1
  O  O15  1  0.02765300  0.72219000  0.78515100  1
  O  O16  1  0.51402800  0.76337500  0.78122800  1
  O  O17  1  0.02765300  0.72219000  0.21484900  1
  O  O18  1  0.97234700  0.22219000  0.28515100  1
  O  O19  1  0.48597200  0.26337500  0.71877200  1
