# generated using pymatgen
data_Th2Mn12P7
_symmetry_space_group_name_H-M   'P 1'
_cell_length_a   3.70787000
_cell_length_b   9.29816901
_cell_length_c   9.29849296
_cell_angle_alpha   119.99474172
_cell_angle_beta   90.00000000
_cell_angle_gamma   90.00000000
_symmetry_Int_Tables_number   1
_chemical_formula_structural   Th2Mn12P7
_chemical_formula_sum   'Th2 Mn12 P7'
_cell_volume   277.64390406
_cell_formula_units_Z   1
loop_
 _symmetry_equiv_pos_site_id
 _symmetry_equiv_pos_as_xyz
  1  'x, y, z'
loop_
 _atom_site_type_symbol
 _atom_site_label
 _atom_site_symmetry_multiplicity
 _atom_site_fract_x
 _atom_site_fract_y
 _atom_site_fract_z
 _atom_site_occupancy
  Th  Th0  1  0.00000000  0.66673000  0.33321400  1
  Th  Th1  1  0.50000000  0.33338600  0.66670900  1
  Mn  Mn2  1  0.00000000  0.37663000  0.94967400  1
  Mn  Mn3  1  0.00000000  0.05030600  0.42686900  1
  Mn  Mn4  1  0.00000000  0.57299600  0.62337100  1
  Mn  Mn5  1  0.00000000  0.87864300  0.72574400  1
  Mn  Mn6  1  0.00000000  0.27416400  0.15274600  1
  Mn  Mn7  1  0.00000000  0.84718100  0.12140800  1
  Mn  Mn8  1  0.50000000  0.95367900  0.56403100  1
  Mn  Mn9  1  0.50000000  0.43583500  0.38957600  1
  Mn  Mn10  1  0.50000000  0.61031200  0.04616900  1
  Mn  Mn11  1  0.50000000  0.11831600  0.89387300  1
  Mn  Mn12  1  0.50000000  0.10639400  0.22472400  1
  Mn  Mn13  1  0.50000000  0.77546600  0.88188700  1
  P  P14  1  0.00000000  0.11290800  0.70910500  1
  P  P15  1  0.00000000  0.29065900  0.40366100  1
  P  P16  1  0.00000000  0.59632800  0.88714300  1
  P  P17  1  0.50000000  0.71719400  0.60028600  1
  P  P18  1  0.50000000  0.39993500  0.11704400  1
  P  P19  1  0.50000000  0.88302100  0.28277000  1
  P  P20  1  0.00000000  0.99991700  0.99999600  1
