# generated using pymatgen
data_KEu(GeO3)2
_symmetry_space_group_name_H-M   'P 1'
_cell_length_a   7.09213485
_cell_length_b   7.09213485
_cell_length_c   19.62014220
_cell_angle_alpha   97.99306802
_cell_angle_beta   97.99306802
_cell_angle_gamma   102.83080921
_symmetry_Int_Tables_number   1
_chemical_formula_structural   KEu(GeO3)2
_chemical_formula_sum   'K6 Eu6 Ge12 O36'
_cell_volume   937.99809634
_cell_formula_units_Z   6
loop_
 _symmetry_equiv_pos_site_id
 _symmetry_equiv_pos_as_xyz
  1  'x, y, z'
loop_
 _atom_site_type_symbol
 _atom_site_label
 _atom_site_symmetry_multiplicity
 _atom_site_fract_x
 _atom_site_fract_y
 _atom_site_fract_z
 _atom_site_occupancy
  K  K0  1  0.71418711  0.92456772  0.42492177  1
  K  K1  1  0.07543228  0.28581289  0.07507823  1
  K  K2  1  0.28581289  0.07543228  0.57507823  1
  K  K3  1  0.92456772  0.71418711  0.92492177  1
  K  K4  1  0.39372953  0.60627047  0.25000000  1
  K  K5  1  0.60627047  0.39372953  0.75000000  1
  Eu  Eu6  1  0.85616170  0.14383830  0.25000000  1
  Eu  Eu7  1  0.14383830  0.85616170  0.75000000  1
  Eu  Eu8  1  0.11625884  0.53066951  0.41864318  1
  Eu  Eu9  1  0.46933049  0.88374116  0.08135682  1
  Eu  Eu10  1  0.88374116  0.46933049  0.58135682  1
  Eu  Eu11  1  0.53066951  0.11625884  0.91864318  1
  Ge  Ge12  1  0.89852991  0.63475977  0.24160919  1
  Ge  Ge13  1  0.36524023  0.10147009  0.25839081  1
  Ge  Ge14  1  0.10147009  0.36524023  0.75839081  1
  Ge  Ge15  1  0.63475977  0.89852991  0.74160919  1
  Ge  Ge16  1  0.56331934  0.38645596  0.40521364  1
  Ge  Ge17  1  0.61354404  0.43668066  0.09478636  1
  Ge  Ge18  1  0.43668066  0.61354404  0.59478636  1
  Ge  Ge19  1  0.38645596  0.56331934  0.90521364  1
  Ge  Ge20  1  0.96282696  0.80267186  0.10816401  1
  Ge  Ge21  1  0.19732814  0.03717304  0.39183599  1
  Ge  Ge22  1  0.03717304  0.19732814  0.89183599  1
  Ge  Ge23  1  0.80267186  0.96282696  0.60816401  1
  O  O24  1  0.79479865  0.81843011  0.27569891  1
  O  O25  1  0.18156989  0.20520135  0.22430109  1
  O  O26  1  0.20520135  0.18156989  0.72430109  1
  O  O27  1  0.81843011  0.79479865  0.77569891  1
  O  O28  1  0.99828883  0.50163464  0.29948083  1
  O  O29  1  0.49836536  0.00171117  0.20051917  1
  O  O30  1  0.00171117  0.49836536  0.70051917  1
  O  O31  1  0.50163464  0.99828883  0.79948083  1
  O  O32  1  0.06688225  0.72128159  0.18465239  1
  O  O33  1  0.27871841  0.93311775  0.31534761  1
  O  O34  1  0.93311775  0.27871841  0.81534761  1
  O  O35  1  0.72128159  0.06688225  0.68465239  1
  O  O36  1  0.72978529  0.42048317  0.18198840  1
  O  O37  1  0.57951683  0.27021471  0.31801160  1
  O  O38  1  0.27021471  0.57951683  0.81801160  1
  O  O39  1  0.42048317  0.72978529  0.68198840  1
  O  O40  1  0.43509246  0.56724075  0.39610665  1
  O  O41  1  0.43275925  0.56490754  0.10389335  1
  O  O42  1  0.56490754  0.43275925  0.60389335  1
  O  O43  1  0.56724075  0.43509246  0.89610665  1
  O  O44  1  0.79977577  0.46321830  0.45613015  1
  O  O45  1  0.53678170  0.20022423  0.04386985  1
  O  O46  1  0.20022423  0.53678170  0.54386985  1
  O  O47  1  0.46321830  0.79977577  0.95613015  1
  O  O48  1  0.42338189  0.19540496  0.44362457  1
  O  O49  1  0.80459504  0.57661811  0.05637543  1
  O  O50  1  0.57661811  0.80459504  0.55637543  1
  O  O51  1  0.19540496  0.42338189  0.94362457  1
  O  O52  1  0.14299888  0.88926281  0.06110179  1
  O  O53  1  0.11073719  0.85700112  0.43889821  1
  O  O54  1  0.85700112  0.11073719  0.93889821  1
  O  O55  1  0.88926281  0.14299888  0.56110179  1
  O  O56  1  0.81497796  0.96566562  0.12825595  1
  O  O57  1  0.03433438  0.18502204  0.37174405  1
  O  O58  1  0.18502204  0.03433438  0.87174405  1
  O  O59  1  0.96566562  0.81497796  0.62825595  1
