# generated using pymatgen
data_Nb4CuSe8
_symmetry_space_group_name_H-M   'P 1'
_cell_length_a   13.55998827
_cell_length_b   13.55998827
_cell_length_c   6.07199916
_cell_angle_alpha   77.24450370
_cell_angle_beta   77.24450370
_cell_angle_gamma   14.86542532
_symmetry_Int_Tables_number   1
_chemical_formula_structural   Nb4CuSe8
_chemical_formula_sum   'Nb4 Cu1 Se8'
_cell_volume   279.24141299
_cell_formula_units_Z   1
loop_
 _symmetry_equiv_pos_site_id
 _symmetry_equiv_pos_as_xyz
  1  'x, y, z'
loop_
 _atom_site_type_symbol
 _atom_site_label
 _atom_site_symmetry_multiplicity
 _atom_site_fract_x
 _atom_site_fract_y
 _atom_site_fract_z
 _atom_site_occupancy
  Nb  Nb0  1  0.37510100  0.37510100  0.63600600  1
  Nb  Nb1  1  0.87554400  0.87554400  0.11517400  1
  Nb  Nb2  1  0.62489900  0.62489900  0.36399400  1
  Nb  Nb3  1  0.12445600  0.12445600  0.88482600  1
  Cu  Cu4  1  0.00000000  0.00000000  0.00000000  1
  Se  Se5  1  0.94068900  0.94068900  0.71998500  1
  Se  Se6  1  0.43886100  0.43886100  0.23484200  1
  Se  Se7  1  0.56113900  0.56113900  0.76515800  1
  Se  Se8  1  0.05931100  0.05931100  0.28001500  1
  Se  Se9  1  0.68699300  0.68699300  0.64514100  1
  Se  Se10  1  0.18973200  0.18973200  0.14335000  1
  Se  Se11  1  0.81026800  0.81026800  0.85665000  1
  Se  Se12  1  0.31300700  0.31300700  0.35485900  1
