# generated using pymatgen
data_Li47(CoO4)8
_symmetry_space_group_name_H-M   'P 1'
_cell_length_a   9.27517300
_cell_length_b   9.39689065
_cell_length_c   9.40974201
_cell_angle_alpha   89.88635614
_cell_angle_beta   89.96757006
_cell_angle_gamma   89.93716108
_symmetry_Int_Tables_number   1
_chemical_formula_structural   Li47(CoO4)8
_chemical_formula_sum   'Li47 Co8 O32'
_cell_volume   820.13004743
_cell_formula_units_Z   1
loop_
 _symmetry_equiv_pos_site_id
 _symmetry_equiv_pos_as_xyz
  1  'x, y, z'
loop_
 _atom_site_type_symbol
 _atom_site_label
 _atom_site_symmetry_multiplicity
 _atom_site_fract_x
 _atom_site_fract_y
 _atom_site_fract_z
 _atom_site_occupancy
  Li  Li0  1  0.88818000  0.89425600  0.61414400  1
  Li  Li1  1  0.88620700  0.60571900  0.11440300  1
  Li  Li2  1  0.88845600  0.36583800  0.14875300  1
  Li  Li3  1  0.88702400  0.13315900  0.64889200  1
  Li  Li4  1  0.88011600  0.88973100  0.86083800  1
  Li  Li5  1  0.87890100  0.61144000  0.36078300  1
  Li  Li6  1  0.86749900  0.35233800  0.87849700  1
  Li  Li7  1  0.86766300  0.14611800  0.37922500  1
  Li  Li8  1  0.86588000  0.12652100  0.10640700  1
  Li  Li9  1  0.86528100  0.37233100  0.60563200  1
  Li  Li10  1  0.84242800  0.61964700  0.87470000  1
  Li  Li11  1  0.83639700  0.87877600  0.37571700  1
  Li  Li12  1  0.65802100  0.12029000  0.87589400  1
  Li  Li13  1  0.65852600  0.37890100  0.37237000  1
  Li  Li14  1  0.63412300  0.62405300  0.10480700  1
  Li  Li15  1  0.63772400  0.87895100  0.61081800  1
  Li  Li16  1  0.61713600  0.64023000  0.37564000  1
  Li  Li17  1  0.63287800  0.85226800  0.88020900  1
  Li  Li18  1  0.62117600  0.39121300  0.85933900  1
  Li  Li19  1  0.62080200  0.10890300  0.36361000  1
  Li  Li20  1  0.61306700  0.86246300  0.14903500  1
  Li  Li21  1  0.61572500  0.63556700  0.65032200  1
  Li  Li22  1  0.61336800  0.10351400  0.11576400  1
  Li  Li23  1  0.61233400  0.39522500  0.61334400  1
  Li  Li24  1  0.38715200  0.89395000  0.88464200  1
  Li  Li25  1  0.38811600  0.39417600  0.36208000  1
  Li  Li26  1  0.38781900  0.13363900  0.85184800  1
  Li  Li27  1  0.38074900  0.89346200  0.64238100  1
  Li  Li28  1  0.38155300  0.60891400  0.15458600  1
  Li  Li29  1  0.36480300  0.35126800  0.62272200  1
  Li  Li30  1  0.36467800  0.15303200  0.12041600  1
  Li  Li31  1  0.36798100  0.13188100  0.39047400  1
  Li  Li32  1  0.36621600  0.37271100  0.89479200  1
  Li  Li33  1  0.34278100  0.88432700  0.12002600  1
  Li  Li34  1  0.34647300  0.61641100  0.60860400  1
  Li  Li35  1  0.15889700  0.38007500  0.12621500  1
  Li  Li36  1  0.15676400  0.12060500  0.62433500  1
  Li  Li37  1  0.14725700  0.62487000  0.39552900  1
  Li  Li38  1  0.13467200  0.87300100  0.89307300  1
  Li  Li39  1  0.13302000  0.84872000  0.62211100  1
  Li  Li40  1  0.13143100  0.64759200  0.11720400  1
  Li  Li41  1  0.11876400  0.38878500  0.64097400  1
  Li  Li42  1  0.11949000  0.10994800  0.13828600  1
  Li  Li43  1  0.10242200  0.86702300  0.35085300  1
  Li  Li44  1  0.11301900  0.63378000  0.84834300  1
  Li  Li45  1  0.11314100  0.39425300  0.88677400  1
  Li  Li46  1  0.11459200  0.10656000  0.38244800  1
  Co  Co47  1  0.89165500  0.86830500  0.12148500  1
  Co  Co48  1  0.89263800  0.63074200  0.62057000  1
  Co  Co49  1  0.61059500  0.36591800  0.11856200  1
  Co  Co50  1  0.60767600  0.13387600  0.62213000  1
  Co  Co51  1  0.38470900  0.85254900  0.37831200  1
  Co  Co52  1  0.39089200  0.63122100  0.87864300  1
  Co  Co53  1  0.10687400  0.36795500  0.37975400  1
  Co  Co54  1  0.10766900  0.13099400  0.87850100  1
  O  O55  1  0.99200400  0.75774300  0.48724200  1
  O  O56  1  0.99165100  0.74299800  0.98550900  1
  O  O57  1  0.98090500  0.00556400  0.25537400  1
  O  O58  1  0.98121200  0.49430500  0.75610300  1
  O  O59  1  0.74628200  0.98210500  0.00792900  1
  O  O60  1  0.74432600  0.51914700  0.50857000  1
  O  O61  1  0.76169300  0.73754300  0.23485700  1
  O  O62  1  0.76279300  0.76313000  0.73570400  1
  O  O63  1  0.73796500  0.23342000  0.23548800  1
  O  O64  1  0.73810400  0.26243300  0.73590800  1
  O  O65  1  0.75560100  0.48190800  0.00544100  1
  O  O66  1  0.75383300  0.01841700  0.50929500  1
  O  O67  1  0.51855600  0.99576800  0.75675100  1
  O  O68  1  0.52740500  0.50175000  0.24872700  1
  O  O69  1  0.50883400  0.25945200  0.48705700  1
  O  O70  1  0.50873200  0.23922000  0.98620700  1
  O  O71  1  0.49398400  0.76239500  0.51220000  1
  O  O72  1  0.48971100  0.75859800  0.01393300  1
  O  O73  1  0.47903100  0.99525200  0.25311100  1
  O  O74  1  0.48258500  0.49667200  0.74191900  1
  O  O75  1  0.25115700  0.97687800  0.48747800  1
  O  O76  1  0.24716600  0.51760100  0.99386300  1
  O  O77  1  0.25849100  0.75481900  0.26176200  1
  O  O78  1  0.26400800  0.76295600  0.76202900  1
  O  O79  1  0.23611500  0.23739200  0.26335200  1
  O  O80  1  0.23760200  0.26073400  0.76579200  1
  O  O81  1  0.24403800  0.47594600  0.49962100  1
  O  O82  1  0.25369800  0.01808200  0.99145900  1
  O  O83  1  0.02019100  0.50711600  0.24320700  1
  O  O84  1  0.01992400  0.99378100  0.74351000  1
  O  O85  1  0.00855000  0.23840300  0.51389700  1
  O  O86  1  0.00898100  0.25666200  0.01298900  1
