# generated using pymatgen
data_Sr4Mn2Cu3(SeO)4
_symmetry_space_group_name_H-M   'P 1'
_cell_length_a   9.45830294
_cell_length_b   9.45830294
_cell_length_c   5.81079000
_cell_angle_alpha   90.00000000
_cell_angle_beta   90.00000000
_cell_angle_gamma   144.22250899
_symmetry_Int_Tables_number   1
_chemical_formula_structural   Sr4Mn2Cu3(SeO)4
_chemical_formula_sum   'Sr4 Mn2 Cu3 Se4 O4'
_cell_volume   303.91308677
_cell_formula_units_Z   1
loop_
 _symmetry_equiv_pos_site_id
 _symmetry_equiv_pos_as_xyz
  1  'x, y, z'
loop_
 _atom_site_type_symbol
 _atom_site_label
 _atom_site_symmetry_multiplicity
 _atom_site_fract_x
 _atom_site_fract_y
 _atom_site_fract_z
 _atom_site_occupancy
  Sr  Sr0  1  0.40585900  0.09560700  0.74979400  1
  Sr  Sr1  1  0.90439300  0.59414100  0.25020600  1
  Sr  Sr2  1  0.09560700  0.40585900  0.25020600  1
  Sr  Sr3  1  0.59414100  0.90439300  0.74979400  1
  Mn  Mn4  1  0.50000000  0.00000000  0.25075300  1
  Mn  Mn5  1  0.00000000  0.50000000  0.74924700  1
  Cu  Cu6  1  0.50000000  0.50000000  0.50000000  1
  Cu  Cu7  1  0.50000000  0.50000000  0.00000000  1
  Cu  Cu8  1  0.00000000  0.00000000  0.50000000  1
  Se  Se9  1  0.16928000  0.33014700  0.75043800  1
  Se  Se10  1  0.66985300  0.83072000  0.24956200  1
  Se  Se11  1  0.33014700  0.16928000  0.24956200  1
  Se  Se12  1  0.83072000  0.66985300  0.75043800  1
  O  O13  1  0.24895300  0.75104700  0.50000000  1
  O  O14  1  0.75001700  0.24998300  0.00000000  1
  O  O15  1  0.75104700  0.24895300  0.50000000  1
  O  O16  1  0.24998300  0.75001700  0.00000000  1
