# generated using pymatgen
data_Y4S3N2
_symmetry_space_group_name_H-M   'P 1'
_cell_length_a   6.76037602
_cell_length_b   3.84595427
_cell_length_c   10.36080332
_cell_angle_alpha   89.99999739
_cell_angle_beta   50.64708113
_cell_angle_gamma   73.47413036
_symmetry_Int_Tables_number   1
_chemical_formula_structural   Y4S3N2
_chemical_formula_sum   'Y4 S3 N2'
_cell_volume   193.69519648
_cell_formula_units_Z   1
loop_
 _symmetry_equiv_pos_site_id
 _symmetry_equiv_pos_as_xyz
  1  'x, y, z'
loop_
 _atom_site_type_symbol
 _atom_site_label
 _atom_site_symmetry_multiplicity
 _atom_site_fract_x
 _atom_site_fract_y
 _atom_site_fract_z
 _atom_site_occupancy
  Y  Y0  1  0.22318843  0.88840578  0.64923844  1
  Y  Y1  1  0.77681157  0.11159422  0.35076156  1
  Y  Y2  1  0.58135867  0.70932066  0.14561834  1
  Y  Y3  1  0.41864133  0.29067934  0.85438166  1
  S  S4  1  -0.00000000  -0.00000000  0.00000000  1
  S  S5  1  0.77934841  0.61032579  0.78464507  1
  S  S6  1  0.22065159  0.38967421  0.21535493  1
  N  N7  1  0.56293562  0.71853269  0.36166406  1
  N  N8  1  0.43706438  0.28146731  0.63833594  1
