# generated using pymatgen
data_NiBi
_symmetry_space_group_name_H-M   'P 1'
_cell_length_a   8.23272113
_cell_length_b   8.23272113
_cell_length_c   11.52059441
_cell_angle_alpha   79.59516817
_cell_angle_beta   79.53415495
_cell_angle_gamma   119.54305465
_symmetry_Int_Tables_number   1
_chemical_formula_structural   NiBi
_chemical_formula_sum   'Ni16 Bi16'
_cell_volume   633.83236280
_cell_formula_units_Z   16
loop_
 _symmetry_equiv_pos_site_id
 _symmetry_equiv_pos_as_xyz
  1  'x, y, z'
loop_
 _atom_site_type_symbol
 _atom_site_label
 _atom_site_symmetry_multiplicity
 _atom_site_fract_x
 _atom_site_fract_y
 _atom_site_fract_z
 _atom_site_occupancy
  Ni  Ni0  1  0.24205589  0.25147685  0.50646727  1
  Ni  Ni1  1  0.76215071  0.75649337  0.48135591  1
  Ni  Ni2  1  0.22754192  0.89499576  0.87746232  1
  Ni  Ni3  1  0.77118225  0.10505977  0.12375798  1
  Ni  Ni4  1  0.12684911  0.12192081  0.75123008  1
  Ni  Ni5  1  0.87288814  0.88357540  0.24353647  1
  Ni  Ni6  1  0.76221330  0.26210638  0.50240637  1
  Ni  Ni7  1  0.23548726  0.73538033  0.50240637  1
  Ni  Ni8  1  0.00081215  0.00000377  0.99918408  1
  Ni  Ni9  1  0.62118388  0.12173075  0.74838915  1
  Ni  Ni10  1  0.86844507  0.36547702  0.24874825  1
  Ni  Ni11  1  0.12988010  0.63042696  0.74838915  1
  Ni  Ni12  1  0.38577473  0.88280667  0.24874825  1
  Ni  Ni13  1  0.49952171  0.99918806  0.99981789  1
  Ni  Ni14  1  0.00099405  0.50066040  0.99981789  1
  Ni  Ni15  1  0.02373201  0.35492470  0.62134329  1
  Bi  Bi16  1  0.83794549  0.53394926  0.62810526  1
  Bi  Bi17  1  0.15132619  0.47904255  0.36963126  1
  Bi  Bi18  1  0.35601194  0.02277363  0.62121443  1
  Bi  Bi19  1  0.64057159  0.97903114  0.38039727  1
  Bi  Bi20  1  0.89478078  0.22945409  0.87576513  1
  Bi  Bi21  1  0.10126610  0.76819300  0.13054090  1
  Bi  Bi22  1  0.40891330  0.25718853  0.87829165  1
  Bi  Bi23  1  0.13346272  0.28357651  0.12555056  1
  Bi  Bi24  1  0.86451982  0.71279505  0.87829165  1
  Bi  Bi25  1  0.59087293  0.74098673  0.12555056  1
  Bi  Bi26  1  0.40953152  0.71294869  0.87751979  1
  Bi  Bi27  1  0.58782437  0.28626116  0.12591447  1
  Bi  Bi28  1  0.83698756  0.98762364  0.63076872  1
  Bi  Bi29  1  0.63871426  0.47233402  0.37361447  1
  Bi  Bi30  1  0.38160764  0.53224372  0.63076872  1
  Bi  Bi31  1  0.15405151  0.98767127  0.37361447  1
