# generated using pymatgen
data_UMnO4
_symmetry_space_group_name_H-M   'P 1'
_cell_length_a   5.94870221
_cell_length_b   5.94870220
_cell_length_c   5.94870220
_cell_angle_alpha   107.85227021
_cell_angle_beta   109.63052022
_cell_angle_gamma   110.94569079
_symmetry_Int_Tables_number   1
_chemical_formula_structural   UMnO4
_chemical_formula_sum   'U2 Mn2 O8'
_cell_volume   161.92973085
_cell_formula_units_Z   2
loop_
 _symmetry_equiv_pos_site_id
 _symmetry_equiv_pos_as_xyz
  1  'x, y, z'
loop_
 _atom_site_type_symbol
 _atom_site_label
 _atom_site_symmetry_multiplicity
 _atom_site_fract_x
 _atom_site_fract_y
 _atom_site_fract_z
 _atom_site_occupancy
  O  O0  1  0.81323614  0.48616300  0.29939710  1
  O  O1  1  0.18676519  0.51383750  0.70060312  1
  O  O2  1  0.81323572  0.01383791  0.82707255  1
  O  O3  1  0.18676561  0.98616259  0.17292768  1
  O  O4  1  0.31278488  0.54336113  0.26942419  1
  O  O5  1  0.27393703  0.04336021  0.73057695  1
  O  O6  1  0.68721644  0.45663937  0.73057604  1
  O  O7  1  0.72606432  0.95664029  0.26942498  1
  Mn  Mn8  1  0.49999956  1.00000000  0.49999903  1
  Mn  Mn9  1  0.50000037  0.50000092  0.00000004  1
  U  U10  1  0.01744412  0.25000082  0.26744424  1
  U  U11  1  0.98255539  0.74999968  0.73255534  1
