# generated using pymatgen
data_YCoGe2
_symmetry_space_group_name_H-M   'P 1'
_cell_length_a   8.39266323
_cell_length_b   8.39266323
_cell_length_c   4.25158800
_cell_angle_alpha   90.00000000
_cell_angle_beta   90.00000000
_cell_angle_gamma   151.25158332
_symmetry_Int_Tables_number   1
_chemical_formula_structural   YCoGe2
_chemical_formula_sum   'Y2 Co2 Ge4'
_cell_volume   144.03360331
_cell_formula_units_Z   2
loop_
 _symmetry_equiv_pos_site_id
 _symmetry_equiv_pos_as_xyz
  1  'x, y, z'
loop_
 _atom_site_type_symbol
 _atom_site_label
 _atom_site_symmetry_multiplicity
 _atom_site_fract_x
 _atom_site_fract_y
 _atom_site_fract_z
 _atom_site_occupancy
  Y  Y0  1  0.89265700  0.10734300  0.25000000  1
  Y  Y1  1  0.10734300  0.89265700  0.75000000  1
  Co  Co2  1  0.68342700  0.31657300  0.25000000  1
  Co  Co3  1  0.31657300  0.68342700  0.75000000  1
  Ge  Ge4  1  0.54430300  0.45569700  0.25000000  1
  Ge  Ge5  1  0.45569700  0.54430300  0.75000000  1
  Ge  Ge6  1  0.25281300  0.74718700  0.25000000  1
  Ge  Ge7  1  0.74718700  0.25281300  0.75000000  1
