# generated using pymatgen
data_Eu2Mo3H2Se2O17
_symmetry_space_group_name_H-M   'P 1'
_cell_length_a   7.39966100
_cell_length_b   7.04136600
_cell_length_c   14.72505478
_cell_angle_alpha   79.75450159
_cell_angle_beta   90.00000000
_cell_angle_gamma   90.00000000
_symmetry_Int_Tables_number   1
_chemical_formula_structural   Eu2Mo3H2Se2O17
_chemical_formula_sum   'Eu4 Mo6 H4 Se4 O34'
_cell_volume   754.99641762
_cell_formula_units_Z   2
loop_
 _symmetry_equiv_pos_site_id
 _symmetry_equiv_pos_as_xyz
  1  'x, y, z'
loop_
 _atom_site_type_symbol
 _atom_site_label
 _atom_site_symmetry_multiplicity
 _atom_site_fract_x
 _atom_site_fract_y
 _atom_site_fract_z
 _atom_site_occupancy
  Eu  Eu0  1  0.25000000  0.38349700  0.54916400  1
  Eu  Eu1  1  0.75000000  0.61650300  0.45083600  1
  Eu  Eu2  1  0.25000000  0.75008000  0.11695600  1
  Eu  Eu3  1  0.75000000  0.24992000  0.88304400  1
  Mo  Mo4  1  0.00488300  0.21412200  0.14050100  1
  Mo  Mo5  1  0.50488300  0.78587800  0.85949900  1
  Mo  Mo6  1  0.99511700  0.78587800  0.85949900  1
  Mo  Mo7  1  0.49511700  0.21412200  0.14050100  1
  Mo  Mo8  1  0.75000000  0.12875600  0.33007200  1
  Mo  Mo9  1  0.25000000  0.87124400  0.66992800  1
  H  H10  1  0.35500700  0.25248200  0.36469100  1
  H  H11  1  0.85500700  0.74751800  0.63530900  1
  H  H12  1  0.64499300  0.74751800  0.63530900  1
  H  H13  1  0.14499300  0.25248200  0.36469100  1
  Se  Se14  1  0.25000000  0.78238000  0.38300500  1
  Se  Se15  1  0.75000000  0.21762000  0.61699500  1
  Se  Se16  1  0.75000000  0.76132100  0.18664800  1
  Se  Se17  1  0.25000000  0.23867900  0.81335200  1
  O  O18  1  0.07452600  0.65738600  0.44470400  1
  O  O19  1  0.57452600  0.34261400  0.55529600  1
  O  O20  1  0.92547400  0.34261400  0.55529600  1
  O  O21  1  0.42547400  0.65738600  0.44470400  1
  O  O22  1  0.25000000  0.71369300  0.27907200  1
  O  O23  1  0.75000000  0.28630700  0.72092800  1
  O  O24  1  0.75000000  0.80668900  0.29771500  1
  O  O25  1  0.25000000  0.19331100  0.70228500  1
  O  O26  1  0.93767800  0.89459700  0.14174800  1
  O  O27  1  0.43767800  0.10540300  0.85825200  1
  O  O28  1  0.06232200  0.10540300  0.85825200  1
  O  O29  1  0.56232200  0.89459700  0.14174800  1
  O  O30  1  0.25000000  0.10493100  0.13541300  1
  O  O31  1  0.75000000  0.89506900  0.86458700  1
  O  O32  1  0.94043600  0.24481900  0.02329200  1
  O  O33  1  0.44043600  0.75518100  0.97670800  1
  O  O34  1  0.05956400  0.75518100  0.97670800  1
  O  O35  1  0.55956400  0.24481900  0.02329200  1
  O  O36  1  0.07161900  0.44958900  0.14959900  1
  O  O37  1  0.57161900  0.55041100  0.85040100  1
  O  O38  1  0.92838100  0.55041100  0.85040100  1
  O  O39  1  0.42838100  0.44958900  0.14959900  1
  O  O40  1  0.99371100  0.11956200  0.28691100  1
  O  O41  1  0.49371100  0.88043800  0.71308900  1
  O  O42  1  0.00628900  0.88043800  0.71308900  1
  O  O43  1  0.50628900  0.11956200  0.28691100  1
  O  O44  1  0.75000000  0.23070300  0.17844500  1
  O  O45  1  0.25000000  0.76929700  0.82155500  1
  O  O46  1  0.75000000  0.36333200  0.35972000  1
  O  O47  1  0.25000000  0.63666800  0.64028000  1
  O  O48  1  0.75000000  0.97490800  0.43982300  1
  O  O49  1  0.25000000  0.02509200  0.56017700  1
  O  O50  1  0.25000000  0.30941700  0.39132900  1
  O  O51  1  0.75000000  0.69058300  0.60867100  1
