# generated using pymatgen
data_SrLa2(CoO3)3
_symmetry_space_group_name_H-M   'P 1'
_cell_length_a   5.46235943
_cell_length_b   5.55644409
_cell_length_c   13.66829280
_cell_angle_alpha   90.35647097
_cell_angle_beta   90.15511161
_cell_angle_gamma   60.35721911
_symmetry_Int_Tables_number   1
_chemical_formula_structural   SrLa2(CoO3)3
_chemical_formula_sum   'Sr2 La4 Co6 O18'
_cell_volume   360.55019292
_cell_formula_units_Z   2
loop_
 _symmetry_equiv_pos_site_id
 _symmetry_equiv_pos_as_xyz
  1  'x, y, z'
loop_
 _atom_site_type_symbol
 _atom_site_label
 _atom_site_symmetry_multiplicity
 _atom_site_fract_x
 _atom_site_fract_y
 _atom_site_fract_z
 _atom_site_occupancy
  Sr  Sr0  1  0.32055700  0.33658400  0.41821800  1
  Sr  Sr1  1  0.34605700  0.33051700  0.91493300  1
  La  La2  1  0.68241900  0.65071500  0.08223400  1
  La  La3  1  0.66506600  0.65705900  0.58441200  1
  La  La4  1  0.98326300  0.01629000  0.25192900  1
  La  La5  1  0.00251400  0.00805600  0.74771100  1
  Co  Co6  1  0.33356000  0.33277600  0.16665800  1
  Co  Co7  1  0.66968900  0.66785000  0.83906200  1
  Co  Co8  1  0.99675500  0.99917600  0.49442400  1
  Co  Co9  1  0.33334000  0.33306700  0.66665200  1
  Co  Co10  1  0.66064400  0.67069000  0.33671500  1
  Co  Co11  1  0.00562800  0.99696300  0.99640800  1
  O  O12  1  0.78969200  0.84281800  0.44080900  1
  O  O13  1  0.87646200  0.82621000  0.89172700  1
  O  O14  1  0.82452300  0.32683400  0.41176100  1
  O  O15  1  0.84103700  0.34310500  0.92293700  1
  O  O16  1  0.30545700  0.81090100  0.39549800  1
  O  O17  1  0.36070200  0.85702100  0.93775700  1
  O  O18  1  0.12433900  0.17087700  0.11038500  1
  O  O19  1  0.21824600  0.10300600  0.57092200  1
  O  O20  1  0.54304500  0.49396200  0.22361600  1
  O  O21  1  0.44926100  0.56236000  0.76233700  1
  O  O22  1  0.47563900  0.06040200  0.25668700  1
  O  O23  1  0.48672800  0.03215100  0.74496400  1
  O  O24  1  0.19231900  0.60514200  0.07678700  1
  O  O25  1  0.17925400  0.63386000  0.58796100  1
  O  O26  1  0.97775800  0.57800100  0.25760800  1
  O  O27  1  0.97179000  0.46907700  0.72842700  1
  O  O28  1  0.68972100  0.08739600  0.07595300  1
  O  O29  1  0.69453300  0.19713600  0.60451200  1
