# generated using pymatgen
data_Ba5Eu5(Fe5O13)2
_symmetry_space_group_name_H-M   'P 1'
_cell_length_a   8.79813939
_cell_length_b   8.95703609
_cell_length_c   8.95271774
_cell_angle_alpha   89.90907744
_cell_angle_beta   114.04677709
_cell_angle_gamma   101.82419431
_symmetry_Int_Tables_number   1
_chemical_formula_structural   Ba5Eu5(Fe5O13)2
_chemical_formula_sum   'Ba5 Eu5 Fe10 O26'
_cell_volume   627.96647198
_cell_formula_units_Z   1
loop_
 _symmetry_equiv_pos_site_id
 _symmetry_equiv_pos_as_xyz
  1  'x, y, z'
loop_
 _atom_site_type_symbol
 _atom_site_label
 _atom_site_symmetry_multiplicity
 _atom_site_fract_x
 _atom_site_fract_y
 _atom_site_fract_z
 _atom_site_occupancy
  Ba  Ba0  1  0.00000000  0.80000000  0.60000000  1
  Ba  Ba1  1  0.00020000  0.60218500  0.19906900  1
  Ba  Ba2  1  0.00311600  0.40241800  0.80202400  1
  Ba  Ba3  1  0.99688400  0.19758200  0.39797600  1
  Ba  Ba4  1  0.99980000  0.99781500  0.00093100  1
  Eu  Eu5  1  0.49990700  0.89538600  0.81172000  1
  Eu  Eu6  1  0.50009300  0.70461400  0.38828000  1
  Eu  Eu7  1  0.50032700  0.51171100  0.00486900  1
  Eu  Eu8  1  0.50000000  0.30000000  0.60000000  1
  Eu  Eu9  1  0.49967300  0.08828900  0.19513100  1
  Fe  Fe10  1  0.75280000  0.65011800  0.79780900  1
  Fe  Fe11  1  0.74977700  0.44645100  0.40010100  1
  Fe  Fe12  1  0.74975300  0.25309900  0.99933800  1
  Fe  Fe13  1  0.75013000  0.05088200  0.60344900  1
  Fe  Fe14  1  0.74011100  0.84789300  0.19632400  1
  Fe  Fe15  1  0.24987000  0.54911800  0.59655100  1
  Fe  Fe16  1  0.25024700  0.34690100  0.20066200  1
  Fe  Fe17  1  0.25022300  0.15354900  0.79989900  1
  Fe  Fe18  1  0.24720000  0.94988200  0.40219100  1
  Fe  Fe19  1  0.25988900  0.75210700  0.00367600  1
  O  O20  1  0.69834100  0.83965100  0.67939900  1
  O  O21  1  0.71654700  0.63482700  0.29130400  1
  O  O22  1  0.69908400  0.43922200  0.87879200  1
  O  O23  1  0.69831700  0.24036300  0.48006600  1
  O  O24  1  0.71649300  0.05173000  0.08211600  1
  O  O25  1  0.30165900  0.76034900  0.52060100  1
  O  O26  1  0.28350700  0.54827000  0.11788400  1
  O  O27  1  0.30168300  0.35963700  0.71993400  1
  O  O28  1  0.30091600  0.16077800  0.32120800  1
  O  O29  1  0.28345300  0.96517300  0.90869600  1
  O  O30  1  0.69963100  0.53897600  0.58070800  1
  O  O31  1  0.69836300  0.33944700  0.17925400  1
  O  O32  1  0.69912400  0.14077000  0.77892100  1
  O  O33  1  0.71674100  0.94841800  0.39527900  1
  O  O34  1  0.71728000  0.73874500  0.97845100  1
  O  O35  1  0.30087600  0.45923000  0.42107900  1
  O  O36  1  0.30163700  0.26055300  0.02074600  1
  O  O37  1  0.30036900  0.06102400  0.61929200  1
  O  O38  1  0.28272000  0.86125500  0.22154900  1
  O  O39  1  0.28325900  0.65158200  0.80472100  1
  O  O40  1  0.00220600  0.69898800  0.89829400  1
  O  O41  1  0.99987100  0.49609600  0.49894200  1
  O  O42  1  0.00000000  0.30000000  0.10000000  1
  O  O43  1  0.00012900  0.10390400  0.70105800  1
  O  O44  1  0.99779400  0.90101200  0.30170600  1
  O  O45  1  0.50000000  0.80000000  0.10000000  1
