# generated using pymatgen
data_TmZnPd
_symmetry_space_group_name_H-M   'P 1'
_cell_length_a   7.28616166
_cell_length_b   7.28616166
_cell_length_c   3.77799800
_cell_angle_alpha   90.00000000
_cell_angle_beta   90.00000000
_cell_angle_gamma   119.99999695
_symmetry_Int_Tables_number   1
_chemical_formula_structural   TmZnPd
_chemical_formula_sum   'Tm3 Zn3 Pd3'
_cell_volume   173.69606300
_cell_formula_units_Z   3
loop_
 _symmetry_equiv_pos_site_id
 _symmetry_equiv_pos_as_xyz
  1  'x, y, z'
loop_
 _atom_site_type_symbol
 _atom_site_label
 _atom_site_symmetry_multiplicity
 _atom_site_fract_x
 _atom_site_fract_y
 _atom_site_fract_z
 _atom_site_occupancy
  Tm  Tm0  1  0.40604700  0.40604700  0.00000000  1
  Tm  Tm1  1  0.59395300  0.00000000  0.00000000  1
  Tm  Tm2  1  0.00000000  0.59395300  0.00000000  1
  Zn  Zn3  1  0.74529800  0.74529800  0.50000000  1
  Zn  Zn4  1  0.25470200  0.00000000  0.50000000  1
  Zn  Zn5  1  0.00000000  0.25470200  0.50000000  1
  Pd  Pd6  1  0.00000000  0.00000000  0.00000000  1
  Pd  Pd7  1  0.66666700  0.33333300  0.50000000  1
  Pd  Pd8  1  0.33333300  0.66666700  0.50000000  1
