# generated using pymatgen
data_YSi3Ni
_symmetry_space_group_name_H-M   'P 1'
_cell_length_a   10.70575100
_cell_length_b   10.70575100
_cell_length_c   3.95879700
_cell_angle_alpha   90.00000000
_cell_angle_beta   90.00000000
_cell_angle_gamma   158.79045365
_symmetry_Int_Tables_number   1
_chemical_formula_structural   YSi3Ni
_chemical_formula_sum   'Y2 Si6 Ni2'
_cell_volume   164.15040114
_cell_formula_units_Z   2
loop_
 _symmetry_equiv_pos_site_id
 _symmetry_equiv_pos_as_xyz
  1  'x, y, z'
loop_
 _atom_site_type_symbol
 _atom_site_label
 _atom_site_symmetry_multiplicity
 _atom_site_fract_x
 _atom_site_fract_y
 _atom_site_fract_z
 _atom_site_occupancy
  Y  Y0  1  0.33104600  0.66895400  0.50000000  1
  Y  Y1  1  0.66895400  0.33104600  0.50000000  1
  Si  Si2  1  0.44401000  0.55599000  0.00000000  1
  Si  Si3  1  0.55599000  0.44401000  0.00000000  1
  Si  Si4  1  0.21780400  0.78219600  0.00000000  1
  Si  Si5  1  0.78219600  0.21780400  0.00000000  1
  Si  Si6  1  0.94402700  0.05597300  0.50000000  1
  Si  Si7  1  0.05597300  0.94402700  0.50000000  1
  Ni  Ni8  1  0.11000400  0.88999600  0.00000000  1
  Ni  Ni9  1  0.88999600  0.11000400  0.00000000  1
