# generated using pymatgen
data_Ho3Ni2
_symmetry_space_group_name_H-M   'P 1'
_cell_length_a   6.81104682
_cell_length_b   6.81104682
_cell_length_c   9.38684106
_cell_angle_alpha   74.84637729
_cell_angle_beta   74.84637729
_cell_angle_gamma   31.42290680
_symmetry_Int_Tables_number   1
_chemical_formula_structural   Ho3Ni2
_chemical_formula_sum   'Ho6 Ni4'
_cell_volume   218.49594178
_cell_formula_units_Z   2
loop_
 _symmetry_equiv_pos_site_id
 _symmetry_equiv_pos_as_xyz
  1  'x, y, z'
loop_
 _atom_site_type_symbol
 _atom_site_label
 _atom_site_symmetry_multiplicity
 _atom_site_fract_x
 _atom_site_fract_y
 _atom_site_fract_z
 _atom_site_occupancy
  Ho  Ho0  1  0.13226600  0.13226600  0.00313400  1
  Ho  Ho1  1  0.86773400  0.86773400  0.99686600  1
  Ho  Ho2  1  0.40263300  0.40263300  0.67258000  1
  Ho  Ho3  1  0.59736700  0.59736700  0.32742000  1
  Ho  Ho4  1  0.14364100  0.14364100  0.63161800  1
  Ho  Ho5  1  0.85635900  0.85635900  0.36838200  1
  Ni  Ni6  1  0.53574100  0.53574100  0.85638600  1
  Ni  Ni7  1  0.46425900  0.46425900  0.14361400  1
  Ni  Ni8  1  0.74278900  0.74278900  0.77348100  1
  Ni  Ni9  1  0.25721100  0.25721100  0.22651900  1
