# generated using pymatgen
data_Cu2SiTe3
_symmetry_space_group_name_H-M   'P 1'
_cell_length_a   7.27816205
_cell_length_b   7.27816205
_cell_length_c   7.27816205
_cell_angle_alpha   146.02559477
_cell_angle_beta   131.79345016
_cell_angle_gamma   60.28180196
_symmetry_Int_Tables_number   1
_chemical_formula_structural   Cu2SiTe3
_chemical_formula_sum   'Cu2 Si1 Te3'
_cell_volume   159.11921111
_cell_formula_units_Z   1
loop_
 _symmetry_equiv_pos_site_id
 _symmetry_equiv_pos_as_xyz
  1  'x, y, z'
loop_
 _atom_site_type_symbol
 _atom_site_label
 _atom_site_symmetry_multiplicity
 _atom_site_fract_x
 _atom_site_fract_y
 _atom_site_fract_z
 _atom_site_occupancy
  Cu  Cu0  1  0.16340700  0.16726600  0.99614100  1
  Cu  Cu1  1  0.82887500  0.83273400  0.99614100  1
  Si  Si2  1  0.51049500  0.50000000  0.01049500  1
  Te  Te3  1  0.91782700  0.66719500  0.25063200  1
  Te  Te4  1  0.58343800  0.33280500  0.25063200  1
  Te  Te5  1  0.24595600  0.00000000  0.24595600  1
