# generated using pymatgen
data_Sm2P3Pt4
_symmetry_space_group_name_H-M   'P 1'
_cell_length_a   9.95869806
_cell_length_b   9.95869806
_cell_length_c   9.95869806
_cell_angle_alpha   155.84936474
_cell_angle_beta   155.84936474
_cell_angle_gamma   34.41699159
_symmetry_Int_Tables_number   1
_chemical_formula_structural   Sm2P3Pt4
_chemical_formula_sum   'Sm2 P3 Pt4'
_cell_volume   165.15432215
_cell_formula_units_Z   1
loop_
 _symmetry_equiv_pos_site_id
 _symmetry_equiv_pos_as_xyz
  1  'x, y, z'
loop_
 _atom_site_type_symbol
 _atom_site_label
 _atom_site_symmetry_multiplicity
 _atom_site_fract_x
 _atom_site_fract_y
 _atom_site_fract_z
 _atom_site_occupancy
  Sm  Sm0  1  0.62772800  0.62772800  0.00000000  1
  Sm  Sm1  1  0.37227200  0.37227200  0.00000000  1
  P  P2  1  0.92608700  0.92608700  0.00000000  1
  P  P3  1  0.07391300  0.07391300  0.00000000  1
  P  P4  1  0.75000000  0.25000000  0.50000000  1
  Pt  Pt5  1  0.80383500  0.80383500  0.00000000  1
  Pt  Pt6  1  0.19616500  0.19616500  0.00000000  1
  Pt  Pt7  1  0.99970000  0.49970000  0.50000000  1
  Pt  Pt8  1  0.50030000  0.00030000  0.50000000  1
