# generated using pymatgen
data_Cr8Cu3NiS16
_symmetry_space_group_name_H-M   'P 1'
_cell_length_a   6.94188082
_cell_length_b   6.94188082
_cell_length_c   12.02050436
_cell_angle_alpha   73.21676641
_cell_angle_beta   90.00000000
_cell_angle_gamma   120.00000000
_symmetry_Int_Tables_number   1
_chemical_formula_structural   Cr8Cu3NiS16
_chemical_formula_sum   'Cr8 Cu3 Ni1 S16'
_cell_volume   472.95190211
_cell_formula_units_Z   1
loop_
 _symmetry_equiv_pos_site_id
 _symmetry_equiv_pos_as_xyz
  1  'x, y, z'
loop_
 _atom_site_type_symbol
 _atom_site_label
 _atom_site_symmetry_multiplicity
 _atom_site_fract_x
 _atom_site_fract_y
 _atom_site_fract_z
 _atom_site_occupancy
  Cr  Cr0  1  0.24988200  0.99976400  0.25035400  1
  Cr  Cr1  1  0.74989800  0.99979700  0.75030500  1
  Cr  Cr2  1  0.00041900  0.50083800  0.50003800  1
  Cr  Cr3  1  0.50052600  0.50105300  0.99989700  1
  Cr  Cr4  1  0.00041900  0.99954300  0.50003800  1
  Cr  Cr5  1  0.50052600  0.99957700  0.99989700  1
  Cr  Cr6  1  0.99905000  0.99957700  0.99989700  1
  Cr  Cr7  1  0.49912300  0.99954300  0.50003800  1
  Cu  Cu8  1  0.43749800  0.37499500  0.68750700  1
  Cu  Cu9  1  0.56248400  0.62496800  0.31254900  1
  Cu  Cu10  1  0.06250300  0.62500600  0.81249100  1
  Ni  Ni11  1  0.93743400  0.37486700  0.18769900  1
  S  S12  1  0.87202500  0.24405000  0.38392500  1
  S  S13  1  0.37102500  0.24205000  0.88692400  1
  S  S14  1  0.13415800  0.76831500  0.12203200  1
  S  S15  1  0.63679700  0.77359400  0.62095200  1
  S  S16  1  0.13415800  0.24381100  0.12203200  1
  S  S17  1  0.63679700  0.24225100  0.62095200  1
  S  S18  1  0.60965300  0.24381100  0.12203200  1
  S  S19  1  0.10545500  0.24225100  0.62095200  1
  S  S20  1  0.62891000  0.75782000  0.11327100  1
  S  S21  1  0.12889400  0.75778700  0.61331900  1
  S  S22  1  0.36333900  0.22667800  0.37861800  1
  S  S23  1  0.86332700  0.22665400  0.87901600  1
  S  S24  1  0.36333900  0.75804300  0.37861800  1
  S  S25  1  0.86332700  0.75765700  0.87901600  1
  S  S26  1  0.89470400  0.75804300  0.37861800  1
  S  S27  1  0.39433100  0.75765700  0.87901600  1
