# generated using pymatgen
data_RbFe(SeO4)2
_symmetry_space_group_name_H-M   'P 1'
_cell_length_a   9.11341300
_cell_length_b   10.32836960
_cell_length_c   10.32836909
_cell_angle_alpha   61.25463165
_cell_angle_beta   90.00125199
_cell_angle_gamma   90.00117472
_symmetry_Int_Tables_number   1
_chemical_formula_structural   RbFe(SeO4)2
_chemical_formula_sum   'Rb4 Fe4 Se8 O32'
_cell_volume   852.36987195
_cell_formula_units_Z   4
loop_
 _symmetry_equiv_pos_site_id
 _symmetry_equiv_pos_as_xyz
  1  'x, y, z'
loop_
 _atom_site_type_symbol
 _atom_site_label
 _atom_site_symmetry_multiplicity
 _atom_site_fract_x
 _atom_site_fract_y
 _atom_site_fract_z
 _atom_site_occupancy
  Rb  Rb0  1  0.50000800  0.24999500  0.75000600  1
  Rb  Rb1  1  0.50000100  0.74999800  0.25000000  1
  Rb  Rb2  1  0.00000000  0.99999500  0.00000600  1
  Rb  Rb3  1  0.99999800  0.49999700  0.50000300  1
  Fe  Fe4  1  0.49999900  0.99999600  0.50000300  1
  Fe  Fe5  1  0.00000200  0.74998100  0.75001800  1
  Fe  Fe6  1  0.50000100  0.49999600  0.00000400  1
  Fe  Fe7  1  0.99999800  0.24998400  0.25001800  1
  Se  Se8  1  0.33339000  0.85326700  0.85328100  1
  Se  Se9  1  0.33339000  0.35326700  0.35328100  1
  Se  Se10  1  0.83340600  0.60326500  0.10328700  1
  Se  Se11  1  0.83340400  0.10325700  0.60329400  1
  Se  Se12  1  0.16659400  0.39671300  0.89673500  1
  Se  Se13  1  0.16659600  0.89670600  0.39674400  1
  Se  Se14  1  0.66661100  0.14672000  0.14673300  1
  Se  Se15  1  0.66661000  0.64671900  0.64673300  1
  O  O16  1  0.16665400  0.30413100  0.80413200  1
  O  O17  1  0.16665700  0.80413000  0.30413000  1
  O  O18  1  0.66665100  0.05413300  0.05413100  1
  O  O19  1  0.66665300  0.55413400  0.55413100  1
  O  O20  1  0.33334800  0.94587000  0.94586600  1
  O  O21  1  0.33334800  0.44586900  0.44586700  1
  O  O22  1  0.83334300  0.69586700  0.19587000  1
  O  O23  1  0.83334200  0.19587000  0.69587000  1
  O  O24  1  0.45746300  0.92991400  0.71657700  1
  O  O25  1  0.45746100  0.42991700  0.21657400  1
  O  O26  1  0.95744400  0.67991300  0.96655700  1
  O  O27  1  0.95744200  0.17991500  0.46655800  1
  O  O28  1  0.16463900  0.86297400  0.78347700  1
  O  O29  1  0.16464000  0.36297200  0.28347800  1
  O  O30  1  0.66463000  0.61300200  0.03349400  1
  O  O31  1  0.66463400  0.11299900  0.53349600  1
  O  O32  1  0.37796700  0.67682800  0.96963900  1
  O  O33  1  0.37796800  0.17682500  0.46964500  1
  O  O34  1  0.87794500  0.42682300  0.21963000  1
  O  O35  1  0.87794600  0.92682100  0.71963200  1
  O  O36  1  0.04255600  0.53344200  0.82008700  1
  O  O37  1  0.04255800  0.03344400  0.32008400  1
  O  O38  1  0.54253700  0.28342600  0.07008200  1
  O  O39  1  0.54253600  0.78342200  0.57008700  1
  O  O40  1  0.12205400  0.28037000  0.07317800  1
  O  O41  1  0.12205300  0.78036700  0.57317900  1
  O  O42  1  0.62203300  0.03035400  0.32317400  1
  O  O43  1  0.62203200  0.53035900  0.82317100  1
  O  O44  1  0.33537000  0.46650500  0.88700200  1
  O  O45  1  0.33536500  0.96650400  0.38700100  1
  O  O46  1  0.83536000  0.21652200  0.13702800  1
  O  O47  1  0.83536100  0.71651800  0.63703100  1
