# generated using pymatgen
data_Cl2O
_symmetry_space_group_name_H-M   'P 1'
_cell_length_a   7.44005054
_cell_length_b   7.44005054
_cell_length_c   7.44005054
_cell_angle_alpha   115.58442661
_cell_angle_beta   115.58442661
_cell_angle_gamma   97.83488562
_symmetry_Int_Tables_number   1
_chemical_formula_structural   Cl2O
_chemical_formula_sum   'Cl8 O4'
_cell_volume   307.53148300
_cell_formula_units_Z   4
loop_
 _symmetry_equiv_pos_site_id
 _symmetry_equiv_pos_as_xyz
  1  'x, y, z'
loop_
 _atom_site_type_symbol
 _atom_site_label
 _atom_site_symmetry_multiplicity
 _atom_site_fract_x
 _atom_site_fract_y
 _atom_site_fract_z
 _atom_site_occupancy
  Cl  Cl0  1  0.49834100  0.31705200  0.18128900  1
  Cl  Cl1  1  0.06705200  0.38576400  0.31871100  1
  Cl  Cl2  1  0.06705200  0.74834100  0.68128900  1
  Cl  Cl3  1  0.61423600  0.93294800  0.68128900  1
  Cl  Cl4  1  0.25165900  0.93294800  0.31871100  1
  Cl  Cl5  1  0.13576400  0.31705200  0.81871100  1
  Cl  Cl6  1  0.68294800  0.50165900  0.81871100  1
  Cl  Cl7  1  0.68294800  0.86423600  0.18128900  1
  O  O8  1  0.21945500  0.21945500  0.00000000  1
  O  O9  1  0.96945500  0.46945500  0.50000000  1
  O  O10  1  0.53054500  0.03054500  0.50000000  1
  O  O11  1  0.78054500  0.78054500  0.00000000  1
