# generated using pymatgen
data_CoH4(ClO)2
_symmetry_space_group_name_H-M   'P 1'
_cell_length_a   3.60349420
_cell_length_b   5.68606832
_cell_length_c   5.68606831
_cell_angle_alpha   97.46506443
_cell_angle_beta   96.90876781
_cell_angle_gamma   96.90876789
_symmetry_Int_Tables_number   1
_chemical_formula_structural   CoH4(ClO)2
_chemical_formula_sum   'Co1 H4 Cl2 O2'
_cell_volume   113.58112708
_cell_formula_units_Z   1
loop_
 _symmetry_equiv_pos_site_id
 _symmetry_equiv_pos_as_xyz
  1  'x, y, z'
loop_
 _atom_site_type_symbol
 _atom_site_label
 _atom_site_symmetry_multiplicity
 _atom_site_fract_x
 _atom_site_fract_y
 _atom_site_fract_z
 _atom_site_occupancy
  H  H0  1  0.84516230  0.21604721  0.60275541  1
  H  H1  1  0.15483833  0.39724617  0.78395312  1
  H  H2  1  0.84516066  0.60275460  0.21604772  1
  H  H3  1  0.15483915  0.78395178  0.39724531  1
  O  O4  1  0.99999964  0.76139037  0.23860904  1
  O  O5  1  0.99999986  0.23860830  0.76139190  1
  Cl  Cl6  1  0.58319049  0.23516365  0.23516343  1
  Cl  Cl7  1  0.41680814  0.76483533  0.76483533  1
  Co  Co8  1  0.00000000  0.00000000  0.00000000  1
