# generated using pymatgen
data_V2PbO6
_symmetry_space_group_name_H-M   'P 1'
_cell_length_a   3.71437716
_cell_length_b   8.33687202
_cell_length_c   9.67269494
_cell_angle_alpha   108.44912811
_cell_angle_beta   90.00000000
_cell_angle_gamma   102.87166510
_symmetry_Int_Tables_number   1
_chemical_formula_structural   V2PbO6
_chemical_formula_sum   'V4 Pb2 O12'
_cell_volume   276.18735001
_cell_formula_units_Z   2
loop_
 _symmetry_equiv_pos_site_id
 _symmetry_equiv_pos_as_xyz
  1  'x, y, z'
loop_
 _atom_site_type_symbol
 _atom_site_label
 _atom_site_symmetry_multiplicity
 _atom_site_fract_x
 _atom_site_fract_y
 _atom_site_fract_z
 _atom_site_occupancy
  O  O0  1  0.66239070  0.32478134  0.69572571  1
  O  O1  1  0.33760929  0.67521858  0.30427452  1
  O  O2  1  0.89254180  0.78508353  0.20738834  1
  O  O3  1  0.10745819  0.21491638  0.79261189  1
  O  O4  1  0.65194686  0.30389365  0.02066442  1
  O  O5  1  0.34805314  0.69610627  0.97933581  1
  O  O6  1  0.10199006  0.20398012  0.46406855  1
  O  O7  1  0.89800994  0.79601980  0.53593168  1
  O  O8  1  0.48883676  0.97767352  0.81772046  1
  O  O9  1  0.72800228  0.45600449  0.35215344  1
  O  O10  1  0.27199771  0.54399543  0.64784679  1
  O  O11  1  0.51116324  0.02232641  0.18227874  1
  V  V12  1  0.59808456  0.19616905  0.84179616  1
  V  V13  1  0.40191544  0.80383087  0.15820407  1
  V  V14  1  0.83509718  0.67019429  0.36121249  1
  V  V15  1  0.16490282  0.32980564  0.63878670  1
  Pb  Pb16  1  0.87522042  0.75044077  0.77216493  1
  Pb  Pb17  1  0.12477957  0.24955915  0.22783530  1
