# generated using pymatgen
data_KMnCl3
_symmetry_space_group_name_H-M   'P 1'
_cell_length_a   7.02772300
_cell_length_b   7.15781900
_cell_length_c   10.08013700
_cell_angle_alpha   90.00000000
_cell_angle_beta   90.00000000
_cell_angle_gamma   90.00000000
_symmetry_Int_Tables_number   1
_chemical_formula_structural   KMnCl3
_chemical_formula_sum   'K4 Mn4 Cl12'
_cell_volume   507.06283723
_cell_formula_units_Z   4
loop_
 _symmetry_equiv_pos_site_id
 _symmetry_equiv_pos_as_xyz
  1  'x, y, z'
loop_
 _atom_site_type_symbol
 _atom_site_label
 _atom_site_symmetry_multiplicity
 _atom_site_fract_x
 _atom_site_fract_y
 _atom_site_fract_z
 _atom_site_occupancy
  K  K0  1  0.98732700  0.04959100  0.25000000  1
  K  K1  1  0.48732700  0.45040900  0.75000000  1
  K  K2  1  0.51267300  0.54959100  0.25000000  1
  K  K3  1  0.01267300  0.95040900  0.75000000  1
  Mn  Mn4  1  0.50000000  0.00000000  0.00000000  1
  Mn  Mn5  1  0.00000000  0.50000000  0.00000000  1
  Mn  Mn6  1  0.00000000  0.50000000  0.50000000  1
  Mn  Mn7  1  0.50000000  0.00000000  0.50000000  1
  Cl  Cl8  1  0.70719200  0.29201800  0.46914300  1
  Cl  Cl9  1  0.20719200  0.20798200  0.53085700  1
  Cl  Cl10  1  0.79280800  0.79201800  0.03085700  1
  Cl  Cl11  1  0.29280800  0.70798200  0.96914300  1
  Cl  Cl12  1  0.29280800  0.70798200  0.53085700  1
  Cl  Cl13  1  0.79280800  0.79201800  0.46914300  1
  Cl  Cl14  1  0.20719200  0.20798200  0.96914300  1
  Cl  Cl15  1  0.70719200  0.29201800  0.03085700  1
  Cl  Cl16  1  0.06047200  0.49357200  0.25000000  1
  Cl  Cl17  1  0.56047200  0.00642800  0.75000000  1
  Cl  Cl18  1  0.43952800  0.99357200  0.25000000  1
  Cl  Cl19  1  0.93952800  0.50642800  0.75000000  1
