# generated using pymatgen
data_Na2Te4O9
_symmetry_space_group_name_H-M   'P 1'
_cell_length_a   7.00735357
_cell_length_b   7.49488740
_cell_length_c   10.77485352
_cell_angle_alpha   70.43873146
_cell_angle_beta   91.05942390
_cell_angle_gamma   70.48415507
_symmetry_Int_Tables_number   1
_chemical_formula_structural   Na2Te4O9
_chemical_formula_sum   'Na4 Te8 O18'
_cell_volume   497.15126733
_cell_formula_units_Z   2
loop_
 _symmetry_equiv_pos_site_id
 _symmetry_equiv_pos_as_xyz
  1  'x, y, z'
loop_
 _atom_site_type_symbol
 _atom_site_label
 _atom_site_symmetry_multiplicity
 _atom_site_fract_x
 _atom_site_fract_y
 _atom_site_fract_z
 _atom_site_occupancy
  O  O0  1  0.04046133  0.15621505  0.85960417  1
  O  O1  1  0.95953867  0.84378495  0.14039583  1
  O  O2  1  0.96497119  0.87529124  0.40257562  1
  O  O3  1  0.03502881  0.12470876  0.59742438  1
  O  O4  1  0.28183571  0.14435029  0.09226810  1
  O  O5  1  0.71816429  0.85564971  0.90773190  1
  O  O6  1  0.66013226  0.33233594  0.66493823  1
  O  O7  1  0.33986774  0.66766406  0.33506177  1
  O  O8  1  0.93916708  0.49360627  0.11547078  1
  O  O9  1  0.06083292  0.50639373  0.88452922  1
  O  O10  1  0.35957495  0.14396495  0.35375136  1
  O  O11  1  0.64042505  0.85603505  0.64624864  1
  O  O12  1  0.33315881  0.50310294  0.11639545  1
  O  O13  1  0.66684119  0.49689706  0.88360455  1
  O  O14  1  0.34023685  0.65963424  0.69797717  1
  O  O15  1  0.65976315  0.34036576  0.30202283  1
  O  O16  1  0.71779775  0.68263358  0.33547257  1
  O  O17  1  0.28220225  0.31736642  0.66452743  1
  Na  Na18  1  0.01721731  0.17900487  0.36584717  1
  Na  Na19  1  0.98278269  0.82099513  0.63415283  1
  Na  Na20  1  0.52040447  0.21904257  0.51434337  1
  Na  Na21  1  0.47959553  0.78095743  0.48565663  1
  Te  Te22  1  0.97684412  0.32293816  0.67110681  1
  Te  Te23  1  0.02315588  0.67706184  0.32889319  1
  Te  Te24  1  0.47516090  0.21048324  0.19867041  1
  Te  Te25  1  0.52483910  0.78951676  0.80132959  1
  Te  Te26  1  0.54053059  0.62974660  0.21850344  1
  Te  Te27  1  0.45946941  0.37025340  0.78149656  1
  Te  Te28  1  0.99203991  0.28689578  0.00576233  1
  Te  Te29  1  0.00796009  0.71310422  0.99423767  1
