# generated using pymatgen
data_CuSe3I
_symmetry_space_group_name_H-M   'P 1'
_cell_length_a   9.60054710
_cell_length_b   9.60054710
_cell_length_c   9.60054716
_cell_angle_alpha   95.28363138
_cell_angle_beta   95.28363138
_cell_angle_gamma   95.28363112
_symmetry_Int_Tables_number   1
_chemical_formula_structural   CuSe3I
_chemical_formula_sum   'Cu6 Se18 I6'
_cell_volume   872.85896641
_cell_formula_units_Z   6
loop_
 _symmetry_equiv_pos_site_id
 _symmetry_equiv_pos_as_xyz
  1  'x, y, z'
loop_
 _atom_site_type_symbol
 _atom_site_label
 _atom_site_symmetry_multiplicity
 _atom_site_fract_x
 _atom_site_fract_y
 _atom_site_fract_z
 _atom_site_occupancy
  Cu  Cu0  1  0.39087300  0.88728600  0.88728600  1
  Cu  Cu1  1  0.88728600  0.88728600  0.39087300  1
  Cu  Cu2  1  0.88728600  0.39087300  0.88728600  1
  Cu  Cu3  1  0.11271400  0.60912700  0.11271400  1
  Cu  Cu4  1  0.60912700  0.11271400  0.11271400  1
  Cu  Cu5  1  0.11271400  0.11271400  0.60912700  1
  Se  Se6  1  0.87506600  0.61086900  0.61086900  1
  Se  Se7  1  0.61086900  0.61086900  0.87506600  1
  Se  Se8  1  0.61086900  0.87506600  0.61086900  1
  Se  Se9  1  0.38913100  0.12493400  0.38913100  1
  Se  Se10  1  0.12493400  0.38913100  0.38913100  1
  Se  Se11  1  0.38913100  0.38913100  0.12493400  1
  Se  Se12  1  0.13777100  0.87418100  0.87418100  1
  Se  Se13  1  0.87418100  0.87418100  0.13777100  1
  Se  Se14  1  0.87418100  0.13777100  0.87418100  1
  Se  Se15  1  0.12581900  0.86222900  0.12581900  1
  Se  Se16  1  0.86222900  0.12581900  0.12581900  1
  Se  Se17  1  0.12581900  0.12581900  0.86222900  1
  Se  Se18  1  0.45375400  0.71269900  0.71269900  1
  Se  Se19  1  0.71269900  0.71269900  0.45375400  1
  Se  Se20  1  0.71269900  0.45375400  0.71269900  1
  Se  Se21  1  0.28730100  0.54624600  0.28730100  1
  Se  Se22  1  0.54624600  0.28730100  0.28730100  1
  Se  Se23  1  0.28730100  0.28730100  0.54624600  1
  I  I24  1  0.14747100  0.85252900  0.50000000  1
  I  I25  1  0.85252900  0.50000000  0.14747100  1
  I  I26  1  0.50000000  0.14747100  0.85252900  1
  I  I27  1  0.85252900  0.14747100  0.50000000  1
  I  I28  1  0.14747100  0.50000000  0.85252900  1
  I  I29  1  0.50000000  0.85252900  0.14747100  1
