# generated using pymatgen
data_SbRh2
_symmetry_space_group_name_H-M   'P 1'
_cell_length_a   4.22276800
_cell_length_b   5.84719100
_cell_length_c   8.05158000
_cell_angle_alpha   90.00000000
_cell_angle_beta   90.00000000
_cell_angle_gamma   90.00000000
_symmetry_Int_Tables_number   1
_chemical_formula_structural   SbRh2
_chemical_formula_sum   'Sb4 Rh8'
_cell_volume   198.80422721
_cell_formula_units_Z   4
loop_
 _symmetry_equiv_pos_site_id
 _symmetry_equiv_pos_as_xyz
  1  'x, y, z'
loop_
 _atom_site_type_symbol
 _atom_site_label
 _atom_site_symmetry_multiplicity
 _atom_site_fract_x
 _atom_site_fract_y
 _atom_site_fract_z
 _atom_site_occupancy
  Sb  Sb0  1  0.75000000  0.21612800  0.39245000  1
  Sb  Sb1  1  0.25000000  0.78387200  0.60755000  1
  Sb  Sb2  1  0.75000000  0.71612800  0.10755000  1
  Sb  Sb3  1  0.25000000  0.28387200  0.89245000  1
  Rh  Rh4  1  0.75000000  0.65901500  0.43040200  1
  Rh  Rh5  1  0.25000000  0.34098500  0.56959800  1
  Rh  Rh6  1  0.75000000  0.15901500  0.06959800  1
  Rh  Rh7  1  0.25000000  0.84098500  0.93040200  1
  Rh  Rh8  1  0.75000000  0.53905800  0.80028500  1
  Rh  Rh9  1  0.25000000  0.46094200  0.19971500  1
  Rh  Rh10  1  0.75000000  0.03905800  0.69971500  1
  Rh  Rh11  1  0.25000000  0.96094200  0.30028500  1
