# generated using pymatgen
data_ZrAl2
_symmetry_space_group_name_H-M   'P 1'
_cell_length_a   5.29295346
_cell_length_b   5.29295346
_cell_length_c   8.79199900
_cell_angle_alpha   90.00000000
_cell_angle_beta   90.00000000
_cell_angle_gamma   119.99999323
_symmetry_Int_Tables_number   1
_chemical_formula_structural   ZrAl2
_chemical_formula_sum   'Zr4 Al8'
_cell_volume   213.31158454
_cell_formula_units_Z   4
loop_
 _symmetry_equiv_pos_site_id
 _symmetry_equiv_pos_as_xyz
  1  'x, y, z'
loop_
 _atom_site_type_symbol
 _atom_site_label
 _atom_site_symmetry_multiplicity
 _atom_site_fract_x
 _atom_site_fract_y
 _atom_site_fract_z
 _atom_site_occupancy
  Zr  Zr0  1  0.33333300  0.66666700  0.43605200  1
  Zr  Zr1  1  0.66666700  0.33333300  0.93605200  1
  Zr  Zr2  1  0.66666700  0.33333300  0.56394800  1
  Zr  Zr3  1  0.33333300  0.66666700  0.06394800  1
  Al  Al4  1  0.17060100  0.34120100  0.75000000  1
  Al  Al5  1  0.82939900  0.17060100  0.25000000  1
  Al  Al6  1  0.34120100  0.17060100  0.25000000  1
  Al  Al7  1  0.65879900  0.82939900  0.75000000  1
  Al  Al8  1  0.00000000  0.00000000  0.00000000  1
  Al  Al9  1  0.00000000  0.00000000  0.50000000  1
  Al  Al10  1  0.82939900  0.65879900  0.25000000  1
  Al  Al11  1  0.17060100  0.82939900  0.75000000  1
