# generated using pymatgen
data_U7Te12
_symmetry_space_group_name_H-M   'P 1'
_cell_length_a   12.42108735
_cell_length_b   12.42108735
_cell_length_c   4.19090600
_cell_angle_alpha   90.00000000
_cell_angle_beta   90.00000000
_cell_angle_gamma   119.99999654
_symmetry_Int_Tables_number   1
_chemical_formula_structural   U7Te12
_chemical_formula_sum   'U7 Te12'
_cell_volume   559.96102343
_cell_formula_units_Z   1
loop_
 _symmetry_equiv_pos_site_id
 _symmetry_equiv_pos_as_xyz
  1  'x, y, z'
loop_
 _atom_site_type_symbol
 _atom_site_label
 _atom_site_symmetry_multiplicity
 _atom_site_fract_x
 _atom_site_fract_y
 _atom_site_fract_z
 _atom_site_occupancy
  U  U0  1  0.39076900  0.48830900  0.00000000  1
  U  U1  1  0.51169100  0.90246000  0.00000000  1
  U  U2  1  0.09754000  0.60923100  0.00000000  1
  U  U3  1  0.21455400  0.04095000  0.50000000  1
  U  U4  1  0.95905000  0.17360400  0.50000000  1
  U  U5  1  0.82639600  0.78544600  0.50000000  1
  U  U6  1  0.66666700  0.33333300  0.00000000  1
  Te  Te7  1  0.41030700  0.08572600  0.00000000  1
  Te  Te8  1  0.91427400  0.32458100  0.00000000  1
  Te  Te9  1  0.67541900  0.58969300  0.00000000  1
  Te  Te10  1  0.15925900  0.19717400  0.00000000  1
  Te  Te11  1  0.80282600  0.96208500  0.00000000  1
  Te  Te12  1  0.03791500  0.84074100  0.00000000  1
  Te  Te13  1  0.52765300  0.71900600  0.50000000  1
  Te  Te14  1  0.87862600  0.54188400  0.50000000  1
  Te  Te15  1  0.66325700  0.12137400  0.50000000  1
  Te  Te16  1  0.45811600  0.33674300  0.50000000  1
  Te  Te17  1  0.19135300  0.47234700  0.50000000  1
  Te  Te18  1  0.28099400  0.80864700  0.50000000  1
