# generated using pymatgen
data_P3RuO9
_symmetry_space_group_name_H-M   'P 1'
_cell_length_a   15.56266400
_cell_length_b   6.40187900
_cell_length_c   8.47358623
_cell_angle_alpha   73.41932486
_cell_angle_beta   90.00000000
_cell_angle_gamma   90.00000000
_symmetry_Int_Tables_number   1
_chemical_formula_structural   P3RuO9
_chemical_formula_sum   'P12 Ru4 O36'
_cell_volume   809.12200950
_cell_formula_units_Z   4
loop_
 _symmetry_equiv_pos_site_id
 _symmetry_equiv_pos_as_xyz
  1  'x, y, z'
loop_
 _atom_site_type_symbol
 _atom_site_label
 _atom_site_symmetry_multiplicity
 _atom_site_fract_x
 _atom_site_fract_y
 _atom_site_fract_z
 _atom_site_occupancy
  P  P0  1  0.45619300  0.84856200  0.22245000  1
  P  P1  1  0.95619300  0.15143800  0.27755000  1
  P  P2  1  0.54380700  0.15143800  0.77755000  1
  P  P3  1  0.04380700  0.84856200  0.72245000  1
  P  P4  1  0.61409000  0.59147500  0.20406500  1
  P  P5  1  0.11409000  0.40852500  0.29593500  1
  P  P6  1  0.38591000  0.40852500  0.79593500  1
  P  P7  1  0.88591000  0.59147500  0.70406500  1
  P  P8  1  0.66000700  0.21033100  0.48370200  1
  P  P9  1  0.16000700  0.78966900  0.01629800  1
  P  P10  1  0.33999300  0.78966900  0.51629800  1
  P  P11  1  0.83999300  0.21033100  0.98370200  1
  Ru  Ru12  1  0.63617500  0.11955200  0.12413400  1
  Ru  Ru13  1  0.13617500  0.88044800  0.37586600  1
  Ru  Ru14  1  0.36382500  0.88044800  0.87586600  1
  Ru  Ru15  1  0.86382500  0.11955200  0.62413400  1
  O  O16  1  0.37854200  0.81755000  0.12463500  1
  O  O17  1  0.87854200  0.18245000  0.37536500  1
  O  O18  1  0.62145800  0.18245000  0.87536500  1
  O  O19  1  0.12145800  0.81755000  0.62463500  1
  O  O20  1  0.50628600  0.05788200  0.15996600  1
  O  O21  1  0.00628600  0.94211800  0.34003400  1
  O  O22  1  0.49371400  0.94211800  0.84003400  1
  O  O23  1  0.99371400  0.05788200  0.65996600  1
  O  O24  1  0.61123000  0.44523200  0.09406400  1
  O  O25  1  0.11123000  0.55476800  0.40593600  1
  O  O26  1  0.38877000  0.55476800  0.90593600  1
  O  O27  1  0.88877000  0.44523200  0.59406400  1
  O  O28  1  0.66343600  0.80068500  0.14028100  1
  O  O29  1  0.16343600  0.19931500  0.35971900  1
  O  O30  1  0.33656400  0.19931500  0.85971900  1
  O  O31  1  0.83656400  0.80068500  0.64028100  1
  O  O32  1  0.84659800  0.46405700  0.88136800  1
  O  O33  1  0.34659800  0.53594300  0.61863200  1
  O  O34  1  0.15340200  0.53594300  0.11863200  1
  O  O35  1  0.65340200  0.46405700  0.38136800  1
  O  O36  1  0.92634900  0.17440000  0.09278700  1
  O  O37  1  0.42634900  0.82560000  0.40721300  1
  O  O38  1  0.07365100  0.82560000  0.90721300  1
  O  O39  1  0.57365100  0.17440000  0.59278700  1
  O  O40  1  0.98275500  0.63822000  0.75352200  1
  O  O41  1  0.48275500  0.36178000  0.74647800  1
  O  O42  1  0.01724500  0.36178000  0.24647800  1
  O  O43  1  0.51724500  0.63822000  0.25352200  1
  O  O44  1  0.76503900  0.18550100  0.09710900  1
  O  O45  1  0.26503900  0.81449900  0.40289100  1
  O  O46  1  0.23496100  0.81449900  0.90289100  1
  O  O47  1  0.73496100  0.18550100  0.59710900  1
  O  O48  1  0.84977600  0.06495300  0.87242500  1
  O  O49  1  0.34977600  0.93504700  0.62757500  1
  O  O50  1  0.15022400  0.93504700  0.12757500  1
  O  O51  1  0.65022400  0.06495300  0.37242500  1
