# generated using pymatgen
data_UGePt
_symmetry_space_group_name_H-M   'P 1'
_cell_length_a   4.39192796
_cell_length_b   5.63544499
_cell_length_c   5.63544520
_cell_angle_alpha   77.59237628
_cell_angle_beta   67.06602799
_cell_angle_gamma   67.06603288
_symmetry_Int_Tables_number   1
_chemical_formula_structural   UGePt
_chemical_formula_sum   'U2 Ge2 Pt2'
_cell_volume   117.97385974
_cell_formula_units_Z   2
loop_
 _symmetry_equiv_pos_site_id
 _symmetry_equiv_pos_as_xyz
  1  'x, y, z'
loop_
 _atom_site_type_symbol
 _atom_site_label
 _atom_site_symmetry_multiplicity
 _atom_site_fract_x
 _atom_site_fract_y
 _atom_site_fract_z
 _atom_site_occupancy
  U  U0  1  0.46088600  0.03911400  0.03911400  1
  U  U1  1  0.52907000  0.47093000  0.47093000  1
  Ge  Ge2  1  0.83628700  0.44369300  0.88373300  1
  Ge  Ge3  1  0.83628700  0.88373300  0.44369300  1
  Pt  Pt4  1  0.16623500  0.62277100  0.04475900  1
  Pt  Pt5  1  0.16623500  0.04475900  0.62277100  1
