# generated using pymatgen
data_MnH4(BrO)2
_symmetry_space_group_name_H-M   'P 1'
_cell_length_a   3.96365023
_cell_length_b   6.00620231
_cell_length_c   6.00620231
_cell_angle_alpha   95.91231296
_cell_angle_beta   96.94943338
_cell_angle_gamma   96.94943333
_symmetry_Int_Tables_number   1
_chemical_formula_structural   MnH4(BrO)2
_chemical_formula_sum   'Mn1 H4 Br2 O2'
_cell_volume   139.88552241
_cell_formula_units_Z   1
loop_
 _symmetry_equiv_pos_site_id
 _symmetry_equiv_pos_as_xyz
  1  'x, y, z'
loop_
 _atom_site_type_symbol
 _atom_site_label
 _atom_site_symmetry_multiplicity
 _atom_site_fract_x
 _atom_site_fract_y
 _atom_site_fract_z
 _atom_site_occupancy
  H  H0  1  0.85566285  0.22550849  0.61002287  1
  H  H1  1  0.14433703  0.38997834  0.77449096  1
  H  H2  1  0.85566357  0.61002275  0.22550878  1
  H  H3  1  0.14433748  0.77449086  0.38997834  1
  O  O4  1  0.00000062  0.75801361  0.24198539  1
  O  O5  1  0.00000040  0.24198528  0.75801357  1
  Mn  Mn6  1  0.00000000  0.00000000  0.00000000  1
  Br  Br7  1  0.42342927  0.75862734  0.75862684  1
  Br  Br8  1  0.57657132  0.24137375  0.24137290  1
