# generated using pymatgen
data_BaBiO3
_symmetry_space_group_name_H-M   'P 1'
_cell_length_a   6.23479437
_cell_length_b   6.23479437
_cell_length_c   6.28764534
_cell_angle_alpha   59.93863157
_cell_angle_beta   59.93863157
_cell_angle_gamma   60.04127849
_symmetry_Int_Tables_number   1
_chemical_formula_structural   BaBiO3
_chemical_formula_sum   'Ba2 Bi2 O6'
_cell_volume   172.72248896
_cell_formula_units_Z   2
loop_
 _symmetry_equiv_pos_site_id
 _symmetry_equiv_pos_as_xyz
  1  'x, y, z'
loop_
 _atom_site_type_symbol
 _atom_site_label
 _atom_site_symmetry_multiplicity
 _atom_site_fract_x
 _atom_site_fract_y
 _atom_site_fract_z
 _atom_site_occupancy
  Ba  Ba0  1  0.75037100  0.75037100  0.74181400  1
  Ba  Ba1  1  0.24962900  0.24962900  0.25818600  1
  Bi  Bi2  1  0.00000000  0.00000000  0.00000000  1
  Bi  Bi3  1  0.50000000  0.50000000  0.50000000  1
  O  O4  1  0.78529200  0.29772200  0.69956200  1
  O  O5  1  0.70227800  0.21470800  0.30043800  1
  O  O6  1  0.21470800  0.70227800  0.30043800  1
  O  O7  1  0.29772200  0.78529200  0.69956200  1
  O  O8  1  0.74160800  0.74160800  0.18398100  1
  O  O9  1  0.25839200  0.25839200  0.81601900  1
