# generated using pymatgen
data_Rb3H(SeO4)2
_symmetry_space_group_name_H-M   'P 1'
_cell_length_a   8.53215420
_cell_length_b   8.53215420
_cell_length_c   10.68957198
_cell_angle_alpha   77.97114339
_cell_angle_beta   77.97114339
_cell_angle_gamma   42.86340528
_symmetry_Int_Tables_number   1
_chemical_formula_structural   Rb3H(SeO4)2
_chemical_formula_sum   'Rb6 H2 Se4 O16'
_cell_volume   515.91887225
_cell_formula_units_Z   2
loop_
 _symmetry_equiv_pos_site_id
 _symmetry_equiv_pos_as_xyz
  1  'x, y, z'
loop_
 _atom_site_type_symbol
 _atom_site_label
 _atom_site_symmetry_multiplicity
 _atom_site_fract_x
 _atom_site_fract_y
 _atom_site_fract_z
 _atom_site_occupancy
  Rb  Rb0  1  0.07870300  0.53719000  0.15219500  1
  Rb  Rb1  1  0.46281000  0.92129700  0.34780500  1
  Rb  Rb2  1  0.92129700  0.46281000  0.84780500  1
  Rb  Rb3  1  0.53719000  0.07870300  0.65219500  1
  Rb  Rb4  1  0.24663700  0.75336300  0.75000000  1
  Rb  Rb5  1  0.75336300  0.24663700  0.25000000  1
  H  H6  1  0.00000000  0.00000000  0.50000000  1
  H  H7  1  0.00000000  0.00000000  0.00000000  1
  Se  Se8  1  0.66186300  0.10588200  0.96333600  1
  Se  Se9  1  0.89411800  0.33813700  0.53666400  1
  Se  Se10  1  0.33813700  0.89411800  0.03666400  1
  Se  Se11  1  0.10588200  0.66186300  0.46333600  1
  O  O12  1  0.42513400  0.32405200  0.88697200  1
  O  O13  1  0.67594800  0.57486600  0.61302800  1
  O  O14  1  0.57486600  0.67594800  0.11302800  1
  O  O15  1  0.32405200  0.42513400  0.38697200  1
  O  O16  1  0.60407100  0.08590400  0.12123700  1
  O  O17  1  0.91409600  0.39592900  0.37876300  1
  O  O18  1  0.39592900  0.91409600  0.87876300  1
  O  O19  1  0.08590400  0.60407100  0.62123700  1
  O  O20  1  0.85563500  0.83001400  0.40048600  1
  O  O21  1  0.16998600  0.14436500  0.09951400  1
  O  O22  1  0.14436500  0.16998600  0.59951400  1
  O  O23  1  0.83001400  0.85563500  0.90048600  1
  O  O24  1  0.16170900  0.82535700  0.44376300  1
  O  O25  1  0.17464300  0.83829100  0.05623700  1
  O  O26  1  0.83829100  0.17464300  0.55623700  1
  O  O27  1  0.82535700  0.16170900  0.94376300  1
