# generated using pymatgen
data_CaH4SeO6
_symmetry_space_group_name_H-M   'P 1'
_cell_length_a   8.46802690
_cell_length_b   8.46802690
_cell_length_c   5.87994245
_cell_angle_alpha   79.92098616
_cell_angle_beta   79.92098616
_cell_angle_gamma   133.47440966
_symmetry_Int_Tables_number   1
_chemical_formula_structural   CaH4SeO6
_chemical_formula_sum   'Ca2 H8 Se2 O12'
_cell_volume   274.29507289
_cell_formula_units_Z   2
loop_
 _symmetry_equiv_pos_site_id
 _symmetry_equiv_pos_as_xyz
  1  'x, y, z'
loop_
 _atom_site_type_symbol
 _atom_site_label
 _atom_site_symmetry_multiplicity
 _atom_site_fract_x
 _atom_site_fract_y
 _atom_site_fract_z
 _atom_site_occupancy
  Ca  Ca0  1  0.83063400  0.16936600  0.25000000  1
  Ca  Ca1  1  0.16936600  0.83063400  0.75000000  1
  H  H2  1  0.76548100  0.75270000  0.07038500  1
  H  H3  1  0.24730000  0.23451900  0.42961500  1
  H  H4  1  0.23451900  0.24730000  0.92961500  1
  H  H5  1  0.75270000  0.76548100  0.57038500  1
  H  H6  1  0.83537500  0.66340100  0.24215800  1
  H  H7  1  0.33659900  0.16462500  0.25784200  1
  H  H8  1  0.16462500  0.33659900  0.75784200  1
  H  H9  1  0.66340100  0.83537500  0.74215800  1
  Se  Se10  1  0.66815500  0.33184500  0.75000000  1
  Se  Se11  1  0.33184500  0.66815500  0.25000000  1
  O  O12  1  0.17204600  0.38969200  0.44345900  1
  O  O13  1  0.62540900  0.16728700  0.59299600  1
  O  O14  1  0.37459100  0.83271300  0.40700400  1
  O  O15  1  0.16728700  0.62540900  0.09299600  1
  O  O16  1  0.71792600  0.85549800  0.56580000  1
  O  O17  1  0.14450200  0.28207400  0.93420000  1
  O  O18  1  0.28207400  0.14450200  0.43420000  1
  O  O19  1  0.85549800  0.71792600  0.06580000  1
  O  O20  1  0.82795400  0.61030800  0.55654100  1
  O  O21  1  0.38969200  0.17204600  0.94345900  1
  O  O22  1  0.83271300  0.37459100  0.90700400  1
  O  O23  1  0.61030800  0.82795400  0.05654100  1
