# generated using pymatgen
data_Cs2CrCl4
_symmetry_space_group_name_H-M   'P 1'
_cell_length_a   9.20754261
_cell_length_b   9.20754261
_cell_length_c   9.20754261
_cell_angle_alpha   147.41026528
_cell_angle_beta   147.41026528
_cell_angle_gamma   46.75669919
_symmetry_Int_Tables_number   1
_chemical_formula_structural   Cs2CrCl4
_chemical_formula_sum   'Cs2 Cr1 Cl4'
_cell_volume   225.63394501
_cell_formula_units_Z   1
loop_
 _symmetry_equiv_pos_site_id
 _symmetry_equiv_pos_as_xyz
  1  'x, y, z'
loop_
 _atom_site_type_symbol
 _atom_site_label
 _atom_site_symmetry_multiplicity
 _atom_site_fract_x
 _atom_site_fract_y
 _atom_site_fract_z
 _atom_site_occupancy
  Cs  Cs0  1  0.35778800  0.35778800  0.00000000  1
  Cs  Cs1  1  0.64221200  0.64221200  0.00000000  1
  Cr  Cr2  1  0.00000000  0.00000000  0.00000000  1
  Cl  Cl3  1  0.00000000  0.50000000  0.50000000  1
  Cl  Cl4  1  0.50000000  0.00000000  0.50000000  1
  Cl  Cl5  1  0.85513300  0.85513300  0.00000000  1
  Cl  Cl6  1  0.14486700  0.14486700  0.00000000  1
