# generated using pymatgen
data_UBr5
_symmetry_space_group_name_H-M   'P 1'
_cell_length_a   7.40487757
_cell_length_b   8.02937261
_cell_length_c   10.84698138
_cell_angle_alpha   109.59693413
_cell_angle_beta   90.81410841
_cell_angle_gamma   116.23281727
_symmetry_Int_Tables_number   1
_chemical_formula_structural   UBr5
_chemical_formula_sum   'U2 Br10'
_cell_volume   534.82415818
_cell_formula_units_Z   2
loop_
 _symmetry_equiv_pos_site_id
 _symmetry_equiv_pos_as_xyz
  1  'x, y, z'
loop_
 _atom_site_type_symbol
 _atom_site_label
 _atom_site_symmetry_multiplicity
 _atom_site_fract_x
 _atom_site_fract_y
 _atom_site_fract_z
 _atom_site_occupancy
  Br  Br0  1  0.93637546  0.18552725  0.42228083  1
  Br  Br1  1  0.06362454  0.81447275  0.57771917  1
  Br  Br2  1  0.23334590  0.17659704  0.95900179  1
  Br  Br3  1  0.76665410  0.82340296  0.04099821  1
  Br  Br4  1  0.10526002  0.62089503  0.84337056  1
  Br  Br5  1  0.89473998  0.37910497  0.15662944  1
  Br  Br6  1  0.70324160  0.98400579  0.75156027  1
  Br  Br7  1  0.29675840  0.01599421  0.24843973  1
  Br  Br8  1  0.57138244  0.44175649  0.66826972  1
  Br  Br9  1  0.42861756  0.55824351  0.33173028  1
  U  U10  1  0.10088905  0.20668421  0.21083888  1
  U  U11  1  0.89911095  0.79331579  0.78916112  1
