# generated using pymatgen
data_AlSeBr7
_symmetry_space_group_name_H-M   'P 1'
_cell_length_a   6.82140100
_cell_length_b   7.12416600
_cell_length_c   15.29868452
_cell_angle_alpha   74.77920322
_cell_angle_beta   90.00000000
_cell_angle_gamma   90.00000000
_symmetry_Int_Tables_number   1
_chemical_formula_structural   AlSeBr7
_chemical_formula_sum   'Al2 Se2 Br14'
_cell_volume   717.38712291
_cell_formula_units_Z   2
loop_
 _symmetry_equiv_pos_site_id
 _symmetry_equiv_pos_as_xyz
  1  'x, y, z'
loop_
 _atom_site_type_symbol
 _atom_site_label
 _atom_site_symmetry_multiplicity
 _atom_site_fract_x
 _atom_site_fract_y
 _atom_site_fract_z
 _atom_site_occupancy
  Al  Al0  1  0.99828000  0.69868800  0.66284700  1
  Al  Al1  1  0.00172000  0.69868800  0.16284700  1
  Se  Se2  1  0.59736300  0.99714100  0.50356800  1
  Se  Se3  1  0.40263700  0.99714100  0.00356800  1
  Br  Br4  1  0.39921300  0.89454300  0.39766500  1
  Br  Br5  1  0.39809700  0.24283700  0.53621300  1
  Br  Br6  1  0.17961000  0.20208900  0.90080000  1
  Br  Br7  1  0.82039000  0.20208900  0.40080000  1
  Br  Br8  1  0.12117400  0.00737000  0.16303000  1
  Br  Br9  1  0.60190300  0.24283700  0.03621300  1
  Br  Br10  1  0.12890500  0.64010300  0.02992400  1
  Br  Br11  1  0.87109500  0.64010300  0.52992400  1
  Br  Br12  1  0.66323600  0.67704800  0.16601800  1
  Br  Br13  1  0.33676400  0.67704800  0.66601800  1
  Br  Br14  1  0.12967000  0.47547900  0.28983300  1
  Br  Br15  1  0.87033000  0.47547900  0.78983300  1
  Br  Br16  1  0.60078700  0.89454300  0.89766500  1
  Br  Br17  1  0.87882600  0.00737000  0.66303000  1
