# generated using pymatgen
data_La(SiP3)2
_symmetry_space_group_name_H-M   'P 1'
_cell_length_a   15.06258485
_cell_length_b   15.06258485
_cell_length_c   10.45976200
_cell_angle_alpha   90.00000000
_cell_angle_beta   90.00000000
_cell_angle_gamma   140.40850337
_symmetry_Int_Tables_number   1
_chemical_formula_structural   La(SiP3)2
_chemical_formula_sum   'La8 Si16 P48'
_cell_volume   1512.41611550
_cell_formula_units_Z   8
loop_
 _symmetry_equiv_pos_site_id
 _symmetry_equiv_pos_as_xyz
  1  'x, y, z'
loop_
 _atom_site_type_symbol
 _atom_site_label
 _atom_site_symmetry_multiplicity
 _atom_site_fract_x
 _atom_site_fract_y
 _atom_site_fract_z
 _atom_site_occupancy
  La  La0  1  0.54126400  0.45873600  0.57568400  1
  La  La1  1  0.45873600  0.54126400  0.07568400  1
  La  La2  1  0.26587400  0.73412600  0.61434000  1
  La  La3  1  0.73412600  0.26587400  0.11434000  1
  La  La4  1  0.18975100  0.81024900  0.09569500  1
  La  La5  1  0.81024900  0.18975100  0.59569500  1
  La  La6  1  0.08109200  0.91890800  0.50026000  1
  La  La7  1  0.91890800  0.08109200  0.00026000  1
  Si  Si8  1  0.74138400  0.58020300  0.17736600  1
  Si  Si9  1  0.48750700  0.15744400  0.71840600  1
  Si  Si10  1  0.51249300  0.84255600  0.21840600  1
  Si  Si11  1  0.84255600  0.51249300  0.71840600  1
  Si  Si12  1  0.15744400  0.48750700  0.21840600  1
  Si  Si13  1  0.49328000  0.84988500  0.88509800  1
  Si  Si14  1  0.50672000  0.15011500  0.38509800  1
  Si  Si15  1  0.15011500  0.50672000  0.88509800  1
  Si  Si16  1  0.84988500  0.49328000  0.38509800  1
  Si  Si17  1  0.25861600  0.41979700  0.67736600  1
  Si  Si18  1  0.41979700  0.25861600  0.17736600  1
  Si  Si19  1  0.58020300  0.74138400  0.67736600  1
  Si  Si20  1  0.10420900  0.23701900  0.35842500  1
  Si  Si21  1  0.89579100  0.76298100  0.85842500  1
  Si  Si22  1  0.76298100  0.89579100  0.35842500  1
  Si  Si23  1  0.23701900  0.10420900  0.85842500  1
  P  P24  1  0.39846100  0.93184100  0.38545700  1
  P  P25  1  0.72680900  0.27319100  0.40324500  1
  P  P26  1  0.27319100  0.72680900  0.90324500  1
  P  P27  1  0.54220100  0.45779900  0.27827800  1
  P  P28  1  0.45779900  0.54220100  0.77827800  1
  P  P29  1  0.42244300  0.57755700  0.35622200  1
  P  P30  1  0.57755700  0.42244300  0.85622200  1
  P  P31  1  0.65612300  0.34387700  0.85296600  1
  P  P32  1  0.00872400  0.30032600  0.35375500  1
  P  P33  1  0.99127600  0.69967400  0.85375500  1
  P  P34  1  0.69967400  0.99127600  0.35375500  1
  P  P35  1  0.30032600  0.00872400  0.85375500  1
  P  P36  1  0.17105900  0.22967100  0.17171000  1
  P  P37  1  0.82894100  0.77032900  0.67171000  1
  P  P38  1  0.77032900  0.82894100  0.17171000  1
  P  P39  1  0.22967100  0.17105900  0.67171000  1
  P  P40  1  0.86090200  0.54776500  0.17792000  1
  P  P41  1  0.13909800  0.45223500  0.67792000  1
  P  P42  1  0.45223500  0.13909800  0.17792000  1
  P  P43  1  0.54776500  0.86090200  0.67792000  1
  P  P44  1  0.05016000  0.53442100  0.18819700  1
  P  P45  1  0.94984000  0.46557900  0.68819700  1
  P  P46  1  0.46557900  0.94984000  0.18819700  1
  P  P47  1  0.53442100  0.05016000  0.68819700  1
  P  P48  1  0.17077900  0.41565100  0.03701000  1
  P  P49  1  0.82922100  0.58434900  0.53701000  1
  P  P50  1  0.58434900  0.82922100  0.03701000  1
  P  P51  1  0.41565100  0.17077900  0.53701000  1
  P  P52  1  0.06815900  0.60153900  0.38545700  1
  P  P53  1  0.93184100  0.39846100  0.88545700  1
  P  P54  1  0.34387700  0.65612300  0.35296600  1
  P  P55  1  0.60153900  0.06815900  0.88545700  1
  P  P56  1  0.88223900  0.79835900  0.25292500  1
  P  P57  1  0.11776100  0.20164100  0.75292500  1
  P  P58  1  0.20164100  0.11776100  0.25292500  1
  P  P59  1  0.79835900  0.88223900  0.75292500  1
  P  P60  1  0.29979700  0.39379600  0.47884700  1
  P  P61  1  0.70020300  0.60620400  0.97884700  1
  P  P62  1  0.18237700  0.81762300  0.37918800  1
  P  P63  1  0.39379600  0.29979700  0.97884700  1
  P  P64  1  0.96902800  0.03097200  0.46261000  1
  P  P65  1  0.03097200  0.96902800  0.96261000  1
  P  P66  1  0.92515500  0.07484500  0.63894200  1
  P  P67  1  0.07484500  0.92515500  0.13894200  1
  P  P68  1  0.84527100  0.15472900  0.20771000  1
  P  P69  1  0.15472900  0.84527100  0.70771000  1
  P  P70  1  0.81762300  0.18237700  0.87918800  1
  P  P71  1  0.60620400  0.70020300  0.47884700  1
