# generated using pymatgen
data_Co(SiP)3
_symmetry_space_group_name_H-M   'P 1'
_cell_length_a   5.73875600
_cell_length_b   5.94528700
_cell_length_c   12.73384200
_cell_angle_alpha   89.87985006
_cell_angle_beta   90.00000000
_cell_angle_gamma   90.00000000
_symmetry_Int_Tables_number   1
_chemical_formula_structural   Co(SiP)3
_chemical_formula_sum   'Co4 Si12 P12'
_cell_volume   434.45928802
_cell_formula_units_Z   4
loop_
 _symmetry_equiv_pos_site_id
 _symmetry_equiv_pos_as_xyz
  1  'x, y, z'
loop_
 _atom_site_type_symbol
 _atom_site_label
 _atom_site_symmetry_multiplicity
 _atom_site_fract_x
 _atom_site_fract_y
 _atom_site_fract_z
 _atom_site_occupancy
  Co  Co0  1  0.96441100  0.99332100  0.87858900  1
  Co  Co1  1  0.46441100  0.00667900  0.12141100  1
  Co  Co2  1  0.53325400  0.48197100  0.61407500  1
  Co  Co3  1  0.03325400  0.51802900  0.38592500  1
  Si  Si4  1  0.96973100  0.17315500  0.31963500  1
  Si  Si5  1  0.46973100  0.82684500  0.68036500  1
  Si  Si6  1  0.93519300  0.62735500  0.22268400  1
  Si  Si7  1  0.43519300  0.37264500  0.77731600  1
  Si  Si8  1  0.33244700  0.92204200  0.95386800  1
  Si  Si9  1  0.83244700  0.07795800  0.04613200  1
  Si  Si10  1  0.90174600  0.52747500  0.67169200  1
  Si  Si11  1  0.40174600  0.47252500  0.32830800  1
  Si  Si12  1  0.00137200  0.06449900  0.57260400  1
  Si  Si13  1  0.50137200  0.93550100  0.42739600  1
  Si  Si14  1  0.91484700  0.63911900  0.92721200  1
  Si  Si15  1  0.41484700  0.36088100  0.07278800  1
  P  P16  1  0.59120400  0.02542700  0.82631800  1
  P  P17  1  0.09120400  0.97457300  0.17368200  1
  P  P18  1  0.51688700  0.56218600  0.92753000  1
  P  P19  1  0.01688700  0.43781400  0.07247000  1
  P  P20  1  0.60670200  0.12505800  0.57388800  1
  P  P21  1  0.10670200  0.87494200  0.42611200  1
  P  P22  1  0.54184200  0.65388400  0.17959000  1
  P  P23  1  0.04184200  0.34611600  0.82041000  1
  P  P24  1  0.57475200  0.13131800  0.28034600  1
  P  P25  1  0.07475200  0.86868200  0.71965400  1
  P  P26  1  0.16251200  0.41467900  0.54978900  1
  P  P27  1  0.66251200  0.58532100  0.45021100  1
