# generated using pymatgen
data_K2MgCr2(H2O5)2
_symmetry_space_group_name_H-M   'P 1'
_cell_length_a   5.76992612
_cell_length_b   6.50936083
_cell_length_c   7.66561751
_cell_angle_alpha   111.12850378
_cell_angle_beta   95.09893981
_cell_angle_gamma   110.05312154
_symmetry_Int_Tables_number   1
_chemical_formula_structural   K2MgCr2(H2O5)2
_chemical_formula_sum   'K2 Mg1 Cr2 H4 O10'
_cell_volume   244.74405391
_cell_formula_units_Z   1
loop_
 _symmetry_equiv_pos_site_id
 _symmetry_equiv_pos_as_xyz
  1  'x, y, z'
loop_
 _atom_site_type_symbol
 _atom_site_label
 _atom_site_symmetry_multiplicity
 _atom_site_fract_x
 _atom_site_fract_y
 _atom_site_fract_z
 _atom_site_occupancy
  H  H0  1  0.10611744  0.13711875  0.38996090  1
  H  H1  1  0.89388206  0.86288202  0.61004019  1
  H  H2  1  0.92244577  0.85818098  0.29861622  1
  H  H3  1  0.07755470  0.14181797  0.70138308  1
  O  O4  1  0.36544514  0.80188617  0.62715436  1
  O  O5  1  0.63455533  0.19811279  0.37284495  1
  O  O6  1  0.04074436  0.98737488  0.26876166  1
  O  O7  1  0.77522720  0.63957527  0.36882041  1
  O  O8  1  0.22477404  0.36042549  0.63117949  1
  O  O9  1  0.95925514  0.01262588  0.73123812  1
  O  O10  1  0.61328104  0.74562825  0.91372064  1
  O  O11  1  0.87750083  0.28740662  0.10427800  1
  O  O12  1  0.12249790  0.71259234  0.89572250  1
  O  O13  1  0.38671846  0.25437251  0.08627915  1
  Mg  Mg14  1  0.00000000  0.00000000  0.00000000  1
  K  K15  1  0.33812159  0.70551027  0.24327865  1
  K  K16  1  0.66187965  0.29449048  0.75672126  1
  Cr  Cr17  1  0.66830242  0.34195799  0.23481298  1
  Cr  Cr18  1  0.33169708  0.65804277  0.76518681  1
