# generated using pymatgen
data_Ag(TeMo)6
_symmetry_space_group_name_H-M   'P 1'
_cell_length_a   9.54729388
_cell_length_b   9.54729388
_cell_length_c   9.69975811
_cell_angle_alpha   59.64068197
_cell_angle_beta   59.64068197
_cell_angle_gamma   27.97207649
_symmetry_Int_Tables_number   1
_chemical_formula_structural   Ag(TeMo)6
_chemical_formula_sum   'Ag1 Te6 Mo6'
_cell_volume   354.00351342
_cell_formula_units_Z   1
loop_
 _symmetry_equiv_pos_site_id
 _symmetry_equiv_pos_as_xyz
  1  'x, y, z'
loop_
 _atom_site_type_symbol
 _atom_site_label
 _atom_site_symmetry_multiplicity
 _atom_site_fract_x
 _atom_site_fract_y
 _atom_site_fract_z
 _atom_site_occupancy
  Ag  Ag0  1  0.00000000  0.00000000  0.00000000  1
  Te  Te1  1  0.12177600  0.12177600  0.38852300  1
  Te  Te2  1  0.54417900  0.54417900  0.16258000  1
  Te  Te3  1  0.45582100  0.45582100  0.83742000  1
  Te  Te4  1  0.82205600  0.82205600  0.24745300  1
  Te  Te5  1  0.17794400  0.17794400  0.75254700  1
  Te  Te6  1  0.87822400  0.87822400  0.61147700  1
  Mo  Mo7  1  0.71419400  0.71419400  0.88801400  1
  Mo  Mo8  1  0.28580600  0.28580600  0.11198600  1
  Mo  Mo9  1  0.84601400  0.84601400  0.93024000  1
  Mo  Mo10  1  0.15398600  0.15398600  0.06976000  1
  Mo  Mo11  1  0.68899200  0.68899200  0.18507200  1
  Mo  Mo12  1  0.31100800  0.31100800  0.81492800  1
