# generated using pymatgen
data_GeI2
_symmetry_space_group_name_H-M   'P 1'
_cell_length_a   4.30738403
_cell_length_b   4.30738403
_cell_length_c   24.61198100
_cell_angle_alpha   90.00000000
_cell_angle_beta   90.00000000
_cell_angle_gamma   120.00000043
_symmetry_Int_Tables_number   1
_chemical_formula_structural   GeI2
_chemical_formula_sum   'Ge3 I6'
_cell_volume   395.46166234
_cell_formula_units_Z   3
loop_
 _symmetry_equiv_pos_site_id
 _symmetry_equiv_pos_as_xyz
  1  'x, y, z'
loop_
 _atom_site_type_symbol
 _atom_site_label
 _atom_site_symmetry_multiplicity
 _atom_site_fract_x
 _atom_site_fract_y
 _atom_site_fract_z
 _atom_site_occupancy
  Ge  Ge0  1  0.00000000  0.00000000  0.00000000  1
  Ge  Ge1  1  0.33333300  0.66666700  0.33143700  1
  Ge  Ge2  1  0.66666700  0.33333300  0.66856300  1
  I  I3  1  0.00000000  0.00000000  0.26076100  1
  I  I4  1  0.00000000  0.00000000  0.73923900  1
  I  I5  1  0.33333300  0.66666700  0.07064800  1
  I  I6  1  0.66666700  0.33333300  0.92935200  1
  I  I7  1  0.33333300  0.66666700  0.59788200  1
  I  I8  1  0.66666700  0.33333300  0.40211800  1
