# generated using pymatgen
data_ZrTe2Br5
_symmetry_space_group_name_H-M   'P 1'
_cell_length_a   9.26186775
_cell_length_b   9.26186775
_cell_length_c   9.90872285
_cell_angle_alpha   59.93733420
_cell_angle_beta   59.93733420
_cell_angle_gamma   76.24991611
_symmetry_Int_Tables_number   1
_chemical_formula_structural   ZrTe2Br5
_chemical_formula_sum   'Zr2 Te4 Br10'
_cell_volume   636.58860172
_cell_formula_units_Z   2
loop_
 _symmetry_equiv_pos_site_id
 _symmetry_equiv_pos_as_xyz
  1  'x, y, z'
loop_
 _atom_site_type_symbol
 _atom_site_label
 _atom_site_symmetry_multiplicity
 _atom_site_fract_x
 _atom_site_fract_y
 _atom_site_fract_z
 _atom_site_occupancy
  Zr  Zr0  1  0.81222900  0.18777100  0.00000000  1
  Zr  Zr1  1  0.18777100  0.81222900  0.00000000  1
  Te  Te2  1  0.33149000  0.66851000  0.50000000  1
  Te  Te3  1  0.66851000  0.33149000  0.50000000  1
  Te  Te4  1  0.55745000  0.55745000  0.63105200  1
  Te  Te5  1  0.44255000  0.44255000  0.36894800  1
  Br  Br6  1  0.16404900  0.50695600  0.08519600  1
  Br  Br7  1  0.49304400  0.83595100  0.91480400  1
  Br  Br8  1  0.83595100  0.49304400  0.91480400  1
  Br  Br9  1  0.50695600  0.16404900  0.08519600  1
  Br  Br10  1  0.25673200  0.91028600  0.67090100  1
  Br  Br11  1  0.08971400  0.74326800  0.32909900  1
  Br  Br12  1  0.85053500  0.85053500  0.08019700  1
  Br  Br13  1  0.14946500  0.14946500  0.91980300  1
  Br  Br14  1  0.91028600  0.25673200  0.67090100  1
  Br  Br15  1  0.74326800  0.08971400  0.32909900  1
