# generated using pymatgen
data_ClF
_symmetry_space_group_name_H-M   'P 1'
_cell_length_a   3.73940100
_cell_length_b   6.56305600
_cell_length_c   7.33865805
_cell_angle_alpha   73.81786393
_cell_angle_beta   90.00000000
_cell_angle_gamma   90.00000000
_symmetry_Int_Tables_number   1
_chemical_formula_structural   ClF
_chemical_formula_sum   'Cl4 F4'
_cell_volume   172.96896682
_cell_formula_units_Z   4
loop_
 _symmetry_equiv_pos_site_id
 _symmetry_equiv_pos_as_xyz
  1  'x, y, z'
loop_
 _atom_site_type_symbol
 _atom_site_label
 _atom_site_symmetry_multiplicity
 _atom_site_fract_x
 _atom_site_fract_y
 _atom_site_fract_z
 _atom_site_occupancy
  Cl  Cl0  1  0.48988200  0.84708700  0.29015300  1
  Cl  Cl1  1  0.98988200  0.15291300  0.20984700  1
  Cl  Cl2  1  0.51011800  0.15291300  0.70984700  1
  Cl  Cl3  1  0.01011800  0.84708700  0.79015300  1
  F  F4  1  0.21955600  0.63238600  0.34681600  1
  F  F5  1  0.71955600  0.36761400  0.15318400  1
  F  F6  1  0.78044400  0.36761400  0.65318400  1
  F  F7  1  0.28044400  0.63238600  0.84681600  1
