# generated using pymatgen
data_In(TeMo)3
_symmetry_space_group_name_H-M   'P 1'
_cell_length_a   9.60308786
_cell_length_b   9.60308786
_cell_length_c   4.62229100
_cell_angle_alpha   90.00000000
_cell_angle_beta   90.00000000
_cell_angle_gamma   119.99999903
_symmetry_Int_Tables_number   1
_chemical_formula_structural   In(TeMo)3
_chemical_formula_sum   'In2 Te6 Mo6'
_cell_volume   369.15582345
_cell_formula_units_Z   2
loop_
 _symmetry_equiv_pos_site_id
 _symmetry_equiv_pos_as_xyz
  1  'x, y, z'
loop_
 _atom_site_type_symbol
 _atom_site_label
 _atom_site_symmetry_multiplicity
 _atom_site_fract_x
 _atom_site_fract_y
 _atom_site_fract_z
 _atom_site_occupancy
  In  In0  1  0.66666700  0.33333300  0.75000000  1
  In  In1  1  0.33333300  0.66666700  0.25000000  1
  Te  Te2  1  0.62944400  0.69133000  0.75000000  1
  Te  Te3  1  0.30867000  0.93811400  0.75000000  1
  Te  Te4  1  0.06188600  0.37055600  0.75000000  1
  Te  Te5  1  0.37055600  0.30867000  0.25000000  1
  Te  Te6  1  0.69133000  0.06188600  0.25000000  1
  Te  Te7  1  0.93811400  0.62944400  0.25000000  1
  Mo  Mo8  1  0.96967100  0.82521100  0.75000000  1
  Mo  Mo9  1  0.17478900  0.14446100  0.75000000  1
  Mo  Mo10  1  0.85553900  0.03032900  0.75000000  1
  Mo  Mo11  1  0.03032900  0.17478900  0.25000000  1
  Mo  Mo12  1  0.82521100  0.85553900  0.25000000  1
  Mo  Mo13  1  0.14446100  0.96967100  0.25000000  1
