# generated using pymatgen
data_CeMn2(GeO3)4
_symmetry_space_group_name_H-M   'P 1'
_cell_length_a   4.96901239
_cell_length_b   9.98867038
_cell_length_c   9.98867038
_cell_angle_alpha   90.00000000
_cell_angle_beta   90.00000000
_cell_angle_gamma   90.00000000
_symmetry_Int_Tables_number   1
_chemical_formula_structural   CeMn2(GeO3)4
_chemical_formula_sum   'Ce2 Mn4 Ge8 O24'
_cell_volume   495.77593638
_cell_formula_units_Z   2
loop_
 _symmetry_equiv_pos_site_id
 _symmetry_equiv_pos_as_xyz
  1  'x, y, z'
loop_
 _atom_site_type_symbol
 _atom_site_label
 _atom_site_symmetry_multiplicity
 _atom_site_fract_x
 _atom_site_fract_y
 _atom_site_fract_z
 _atom_site_occupancy
  O  O0  1  0.25601628  0.56367240  0.66656380  1
  O  O1  1  0.25601628  0.93632797  0.83343656  1
  O  O2  1  0.25601628  0.66656380  0.93632797  1
  O  O3  1  0.25601628  0.83343656  0.56367240  1
  O  O4  1  0.74398303  0.66656380  0.56367240  1
  O  O5  1  0.74398303  0.93632797  0.66656380  1
  O  O6  1  0.74398303  0.56367240  0.83343656  1
  O  O7  1  0.74398303  0.83343656  0.93632797  1
  O  O8  1  0.74398303  0.43632718  0.33343577  1
  O  O9  1  0.74398303  0.06367261  0.16656402  1
  O  O10  1  0.74398303  0.33343577  0.06367261  1
  O  O11  1  0.74398303  0.16656402  0.43632718  1
  O  O12  1  0.25601628  0.33343577  0.43632718  1
  O  O13  1  0.25601628  0.06367261  0.33343577  1
  O  O14  1  0.17301967  0.62998787  0.37001271  1
  O  O15  1  0.17301967  0.12998708  0.62998787  1
  O  O16  1  0.17301967  0.37001271  0.87001250  1
  O  O17  1  0.17301967  0.87001250  0.12998708  1
  O  O18  1  0.82698168  0.62998787  0.12998708  1
  O  O19  1  0.25601628  0.43632718  0.16656402  1
  O  O20  1  0.82698168  0.37001271  0.62998787  1
  O  O21  1  0.82698168  0.12998708  0.87001250  1
  O  O22  1  0.25601628  0.16656402  0.06367261  1
  O  O23  1  0.82698168  0.87001250  0.37001271  1
  Mn  Mn24  1  0.49999966  0.49999979  0.00000000  1
  Mn  Mn25  1  0.49999966  0.00000000  0.49999979  1
  Mn  Mn26  1  0.49999966  0.49999979  0.49999979  1
  Mn  Mn27  1  0.49999966  0.00000000  0.00000000  1
  Ge  Ge28  1  0.00000000  0.25000040  0.97596433  1
  Ge  Ge29  1  0.00000000  0.97596433  0.25000040  1
  Ge  Ge30  1  0.00000000  0.25000040  0.52403504  1
  Ge  Ge31  1  0.00000000  0.47596454  0.75000018  1
  Ge  Ge32  1  0.00000000  0.75000018  0.47596454  1
  Ge  Ge33  1  0.00000000  0.75000018  0.02403525  1
  Ge  Ge34  1  0.00000000  0.02403525  0.75000018  1
  Ge  Ge35  1  0.00000000  0.52403504  0.25000040  1
  Ce  Ce36  1  0.49999966  0.75000018  0.75000018  1
  Ce  Ce37  1  0.49999966  0.25000040  0.25000040  1
