# generated using pymatgen
data_Li4H4Rh
_symmetry_space_group_name_H-M   'P 1'
_cell_length_a   4.89547330
_cell_length_b   4.89547330
_cell_length_c   4.89547330
_cell_angle_alpha   100.01981695
_cell_angle_beta   100.01981695
_cell_angle_gamma   130.69425874
_symmetry_Int_Tables_number   1
_chemical_formula_structural   Li4H4Rh
_chemical_formula_sum   'Li4 H4 Rh1'
_cell_volume   80.84638869
_cell_formula_units_Z   1
loop_
 _symmetry_equiv_pos_site_id
 _symmetry_equiv_pos_as_xyz
  1  'x, y, z'
loop_
 _atom_site_type_symbol
 _atom_site_label
 _atom_site_symmetry_multiplicity
 _atom_site_fract_x
 _atom_site_fract_y
 _atom_site_fract_z
 _atom_site_occupancy
  Li  Li0  1  0.61300200  0.21804300  0.83104500  1
  Li  Li1  1  0.38699800  0.78195700  0.16895500  1
  Li  Li2  1  0.21804300  0.38699800  0.60504100  1
  Li  Li3  1  0.78195700  0.61300200  0.39495900  1
  H  H4  1  0.93252600  0.26526400  0.19778900  1
  H  H5  1  0.06747400  0.73473600  0.80221100  1
  H  H6  1  0.26526400  0.06747400  0.33273800  1
  H  H7  1  0.73473600  0.93252600  0.66726200  1
  Rh  Rh8  1  0.00000000  0.00000000  0.00000000  1
