# generated using pymatgen
data_LiCoAsO4
_symmetry_space_group_name_H-M   'P 1'
_cell_length_a   4.96432707
_cell_length_b   6.04960400
_cell_length_c   10.59866116
_cell_angle_alpha   90.00023784
_cell_angle_beta   90.01988271
_cell_angle_gamma   90.00176948
_symmetry_Int_Tables_number   1
_chemical_formula_structural   LiCoAsO4
_chemical_formula_sum   'Li4 Co4 As4 O16'
_cell_volume   318.30122946
_cell_formula_units_Z   4
loop_
 _symmetry_equiv_pos_site_id
 _symmetry_equiv_pos_as_xyz
  1  'x, y, z'
loop_
 _atom_site_type_symbol
 _atom_site_label
 _atom_site_symmetry_multiplicity
 _atom_site_fract_x
 _atom_site_fract_y
 _atom_site_fract_z
 _atom_site_occupancy
  Li  Li0  1  0.99999900  0.00000000  0.99999900  1
  Li  Li1  1  0.50000000  0.00000200  0.50000100  1
  Li  Li2  1  0.00000100  0.49999900  0.99999900  1
  Li  Li3  1  0.49999900  0.49999700  0.50000200  1
  Co  Co4  1  0.49444400  0.75000000  0.22278100  1
  Co  Co5  1  0.50555700  0.25000400  0.77721700  1
  Co  Co6  1  0.00545300  0.75000000  0.72279400  1
  Co  Co7  1  0.99454600  0.24999900  0.27720700  1
  As  As8  1  0.06202700  0.25000800  0.59547900  1
  As  As9  1  0.43798100  0.24999700  0.09544200  1
  As  As10  1  0.93797300  0.74999800  0.40452400  1
  As  As11  1  0.56202000  0.75001300  0.90455400  1
  O  O12  1  0.78205900  0.25000100  0.09593000  1
  O  O13  1  0.21794000  0.75000000  0.90407000  1
  O  O14  1  0.71790600  0.24999900  0.59593500  1
  O  O15  1  0.28209500  0.75000000  0.40406200  1
  O  O16  1  0.79324700  0.75000200  0.55271700  1
  O  O17  1  0.70675400  0.74999700  0.05272200  1
  O  O18  1  0.29324400  0.25000800  0.94728200  1
  O  O19  1  0.20675500  0.24999800  0.44728200  1
  O  O20  1  0.77943700  0.53011800  0.32806400  1
  O  O21  1  0.22055000  0.46988300  0.67193800  1
  O  O22  1  0.72044400  0.52993000  0.82805800  1
  O  O23  1  0.77943900  0.96988500  0.32806200  1
  O  O24  1  0.27955700  0.02993900  0.17194200  1
  O  O25  1  0.27955400  0.47005900  0.17194000  1
  O  O26  1  0.22057700  0.03011600  0.67193400  1
  O  O27  1  0.72044000  0.97004700  0.82806400  1
