# generated using pymatgen
data_Te7Pd20
_symmetry_space_group_name_H-M   'P 1'
_cell_length_a   7.91418394
_cell_length_b   7.91418394
_cell_length_c   7.91418376
_cell_angle_alpha   98.97805357
_cell_angle_beta   98.97805357
_cell_angle_gamma   98.97804931
_symmetry_Int_Tables_number   1
_chemical_formula_structural   Te7Pd20
_chemical_formula_sum   'Te7 Pd20'
_cell_volume   475.28720235
_cell_formula_units_Z   1
loop_
 _symmetry_equiv_pos_site_id
 _symmetry_equiv_pos_as_xyz
  1  'x, y, z'
loop_
 _atom_site_type_symbol
 _atom_site_label
 _atom_site_symmetry_multiplicity
 _atom_site_fract_x
 _atom_site_fract_y
 _atom_site_fract_z
 _atom_site_occupancy
  Te  Te0  1  0.00000000  0.00000000  0.00000000  1
  Te  Te1  1  0.45434300  0.87884300  0.72431000  1
  Te  Te2  1  0.87884300  0.72431000  0.45434300  1
  Te  Te3  1  0.72431000  0.45434300  0.87884300  1
  Te  Te4  1  0.54565700  0.12115700  0.27569000  1
  Te  Te5  1  0.12115700  0.27569000  0.54565700  1
  Te  Te6  1  0.27569000  0.54565700  0.12115700  1
  Pd  Pd7  1  0.37982400  0.37982400  0.37982400  1
  Pd  Pd8  1  0.62017600  0.62017600  0.62017600  1
  Pd  Pd9  1  0.00866500  0.33420100  0.22298000  1
  Pd  Pd10  1  0.33420100  0.22298000  0.00866500  1
  Pd  Pd11  1  0.22298000  0.00866500  0.33420100  1
  Pd  Pd12  1  0.99133500  0.66579900  0.77702000  1
  Pd  Pd13  1  0.66579900  0.77702000  0.99133500  1
  Pd  Pd14  1  0.77702000  0.99133500  0.66579900  1
  Pd  Pd15  1  0.68672200  0.14469300  0.98775300  1
  Pd  Pd16  1  0.14469300  0.98775300  0.68672200  1
  Pd  Pd17  1  0.98775300  0.68672200  0.14469300  1
  Pd  Pd18  1  0.31327800  0.85530700  0.01224700  1
  Pd  Pd19  1  0.85530700  0.01224700  0.31327800  1
  Pd  Pd20  1  0.01224700  0.31327800  0.85530700  1
  Pd  Pd21  1  0.21777000  0.67768100  0.46369100  1
  Pd  Pd22  1  0.67768100  0.46369100  0.21777000  1
  Pd  Pd23  1  0.46369100  0.21777000  0.67768100  1
  Pd  Pd24  1  0.78223000  0.32231900  0.53630900  1
  Pd  Pd25  1  0.32231900  0.53630900  0.78223000  1
  Pd  Pd26  1  0.53630900  0.78223000  0.32231900  1
