# generated using pymatgen
data_TiBr3
_symmetry_space_group_name_H-M   'P 1'
_cell_length_a   6.51870719
_cell_length_b   6.48822599
_cell_length_c   7.78059507
_cell_angle_alpha   65.49548552
_cell_angle_beta   65.49632273
_cell_angle_gamma   59.78803041
_symmetry_Int_Tables_number   1
_chemical_formula_structural   TiBr3
_chemical_formula_sum   'Ti2 Br6'
_cell_volume   249.72438721
_cell_formula_units_Z   2
loop_
 _symmetry_equiv_pos_site_id
 _symmetry_equiv_pos_as_xyz
  1  'x, y, z'
loop_
 _atom_site_type_symbol
 _atom_site_label
 _atom_site_symmetry_multiplicity
 _atom_site_fract_x
 _atom_site_fract_y
 _atom_site_fract_z
 _atom_site_occupancy
  Ti  Ti0  1  0.33932478  0.81943591  0.99997058  1
  Ti  Ti1  1  0.66067522  0.18056409  0.00002942  1
  Br  Br2  1  0.27499392  0.42524137  0.22645755  1
  Br  Br3  1  0.72500608  0.57475863  0.77354245  1
  Br  Br4  1  0.57426386  0.78155718  0.21676723  1
  Br  Br5  1  0.42573614  0.21844282  0.78323277  1
  Br  Br6  1  0.07309582  0.92613698  0.78130370  1
  Br  Br7  1  0.92690418  0.07386302  0.21869630  1
