# generated using pymatgen
data_Li3Fe3(PO4)4
_symmetry_space_group_name_H-M   'P 1'
_cell_length_a   8.08883800
_cell_length_b   8.88007788
_cell_length_c   13.23359494
_cell_angle_alpha   84.81634877
_cell_angle_beta   89.82629304
_cell_angle_gamma   89.78959424
_symmetry_Int_Tables_number   1
_chemical_formula_structural   Li3Fe3(PO4)4
_chemical_formula_sum   'Li9 Fe9 P12 O48'
_cell_volume   946.66520286
_cell_formula_units_Z   3
loop_
 _symmetry_equiv_pos_site_id
 _symmetry_equiv_pos_as_xyz
  1  'x, y, z'
loop_
 _atom_site_type_symbol
 _atom_site_label
 _atom_site_symmetry_multiplicity
 _atom_site_fract_x
 _atom_site_fract_y
 _atom_site_fract_z
 _atom_site_occupancy
  Li  Li0  1  0.86356400  0.77051100  0.83630300  1
  Li  Li1  1  0.13457400  0.24131300  0.16182800  1
  Li  Li2  1  0.86351000  0.42246100  0.17196400  1
  Li  Li3  1  0.36216100  0.72738900  0.16422200  1
  Li  Li4  1  0.36257200  0.40659400  0.49635500  1
  Li  Li5  1  0.36706000  0.07739800  0.82645000  1
  Li  Li6  1  0.63186100  0.58878400  0.50807000  1
  Li  Li7  1  0.63612200  0.26002900  0.83708200  1
  Li  Li8  1  0.13657900  0.89586200  0.49472400  1
  Fe  Fe9  1  0.48986800  0.34737800  0.17213500  1
  Fe  Fe10  1  0.85535100  0.09923800  0.50118700  1
  Fe  Fe11  1  0.01644000  0.82924700  0.16176100  1
  Fe  Fe12  1  0.00544500  0.51270400  0.50473600  1
  Fe  Fe13  1  0.99391600  0.15359600  0.82799000  1
  Fe  Fe14  1  0.64055300  0.93361700  0.16727300  1
  Fe  Fe15  1  0.14399200  0.56745900  0.83235100  1
  Fe  Fe16  1  0.48189400  0.99755700  0.49956800  1
  Fe  Fe17  1  0.51671200  0.67033200  0.83440400  1
  P  P18  1  0.30582600  0.68614800  0.61098900  1
  P  P19  1  0.31653200  0.35410100  0.94862000  1
  P  P20  1  0.80960500  0.47557200  0.72145800  1
  P  P21  1  0.79562200  0.81093800  0.39044400  1
  P  P22  1  0.18958800  0.19118200  0.61150800  1
  P  P23  1  0.18767900  0.52088600  0.28163300  1
  P  P24  1  0.68289500  0.31298100  0.38568900  1
  P  P25  1  0.70052700  0.64463600  0.05531300  1
  P  P26  1  0.30440300  0.02411300  0.27729600  1
  P  P27  1  0.20259900  0.85600000  0.94355200  1
  P  P28  1  0.69223300  0.98136200  0.72215900  1
  P  P29  1  0.81521300  0.14595200  0.05116700  1
  O  O30  1  0.91854100  0.92531900  0.43168300  1
  O  O31  1  0.07147100  0.41057700  0.23793700  1
  O  O32  1  0.63847200  0.13968000  0.41767400  1
  O  O33  1  0.63641400  0.48266600  0.08474700  1
  O  O34  1  0.36079300  0.18899300  0.25120500  1
  O  O35  1  0.30848300  0.33469600  0.06544300  1
  O  O36  1  0.92808700  0.25443800  0.09635000  1
  O  O37  1  0.13362800  0.00511800  0.22765400  1
  O  O38  1  0.63454700  0.14568800  0.10107100  1
  O  O39  1  0.87193300  0.98877700  0.76469400  1
  O  O40  1  0.37577600  0.84086500  0.89588600  1
  O  O41  1  0.08067600  0.74202300  0.89994300  1
  O  O42  1  0.70044600  0.67724900  0.93826500  1
  O  O43  1  0.64261800  0.81251600  0.74512500  1
  O  O44  1  0.36170300  0.52650900  0.91494300  1
  O  O45  1  0.35562300  0.85495800  0.58802900  1
  O  O46  1  0.30175800  0.65556000  0.73145300  1
  O  O47  1  0.93480800  0.58373600  0.76773800  1
  O  O48  1  0.30121400  0.98730200  0.39403900  1
  O  O49  1  0.68847100  0.33474300  0.26887800  1
  O  O50  1  0.13694700  0.35420100  0.89804500  1
  O  O51  1  0.63791700  0.49615400  0.77057900  1
  O  O52  1  0.62294400  0.82630300  0.43761300  1
  O  O53  1  0.12664400  0.67852600  0.56751900  1
  O  O54  1  0.43027100  0.24416600  0.90453700  1
  O  O55  1  0.81012800  0.16596600  0.93459100  1
  O  O56  1  0.42325800  0.57608000  0.56992900  1
  O  O57  1  0.81121400  0.51136900  0.60491200  1
  O  O58  1  0.43114500  0.91476400  0.23262700  1
  O  O59  1  0.86387000  0.30970600  0.74865900  1
  O  O60  1  0.79608300  0.84723900  0.27155700  1
  O  O61  1  0.85976000  0.64860300  0.41524800  1
  O  O62  1  0.13861100  0.01877000  0.91605100  1
  O  O63  1  0.85952200  0.97286800  0.08538100  1
  O  O64  1  0.13473900  0.35697900  0.58496600  1
  O  O65  1  0.18861300  0.15504400  0.72778400  1
  O  O66  1  0.13807500  0.68948500  0.25231000  1
  O  O67  1  0.57478000  0.09159200  0.76269600  1
  O  O68  1  0.18747100  0.49507300  0.39918200  1
  O  O69  1  0.57006300  0.42118200  0.43186100  1
  O  O70  1  0.20200200  0.82215700  0.06076300  1
  O  O71  1  0.57912800  0.75967800  0.09962500  1
  O  O72  1  0.69668500  0.01141300  0.60134200  1
  O  O73  1  0.86320200  0.31206200  0.43525500  1
  O  O74  1  0.36668000  0.51048200  0.23643900  1
  O  O75  1  0.87366400  0.65924400  0.10303600  1
  O  O76  1  0.06506000  0.08280400  0.56464400  1
  O  O77  1  0.36116600  0.17134000  0.56185500  1
