# generated using pymatgen
data_Pd(SeCl3)2
_symmetry_space_group_name_H-M   'P 1'
_cell_length_a   9.86033095
_cell_length_b   9.86033095
_cell_length_c   7.70904674
_cell_angle_alpha   80.09147000
_cell_angle_beta   80.09147000
_cell_angle_gamma   53.00908886
_symmetry_Int_Tables_number   1
_chemical_formula_structural   Pd(SeCl3)2
_chemical_formula_sum   'Pd2 Se4 Cl12'
_cell_volume   587.49380082
_cell_formula_units_Z   2
loop_
 _symmetry_equiv_pos_site_id
 _symmetry_equiv_pos_as_xyz
  1  'x, y, z'
loop_
 _atom_site_type_symbol
 _atom_site_label
 _atom_site_symmetry_multiplicity
 _atom_site_fract_x
 _atom_site_fract_y
 _atom_site_fract_z
 _atom_site_occupancy
  Pd  Pd0  1  0.83736500  0.16263500  0.75000000  1
  Pd  Pd1  1  0.16263500  0.83736500  0.25000000  1
  Se  Se2  1  0.93080900  0.26469100  0.93437400  1
  Se  Se3  1  0.73530900  0.06919100  0.56562600  1
  Se  Se4  1  0.06919100  0.73530900  0.06562600  1
  Se  Se5  1  0.26469100  0.93080900  0.43437400  1
  Cl  Cl6  1  0.68853900  0.52346800  0.95617400  1
  Cl  Cl7  1  0.47653200  0.31146100  0.54382600  1
  Cl  Cl8  1  0.31146100  0.47653200  0.04382600  1
  Cl  Cl9  1  0.52346800  0.68853900  0.45617400  1
  Cl  Cl10  1  0.08636800  0.33492900  0.76757400  1
  Cl  Cl11  1  0.66507100  0.91363200  0.73242600  1
  Cl  Cl12  1  0.08725500  0.76287800  0.53475400  1
  Cl  Cl13  1  0.23712200  0.91274500  0.96524600  1
  Cl  Cl14  1  0.91274500  0.23712200  0.46524600  1
  Cl  Cl15  1  0.76287800  0.08725500  0.03475400  1
  Cl  Cl16  1  0.33492900  0.08636800  0.26757400  1
  Cl  Cl17  1  0.91363200  0.66507100  0.23242600  1
