# generated using pymatgen
data_Pt(PbO2)2
_symmetry_space_group_name_H-M   'P 1'
_cell_length_a   6.44477400
_cell_length_b   8.09114100
_cell_length_c   9.23479200
_cell_angle_alpha   90.00000000
_cell_angle_beta   90.00000000
_cell_angle_gamma   90.00000000
_symmetry_Int_Tables_number   1
_chemical_formula_structural   Pt(PbO2)2
_chemical_formula_sum   'Pt4 Pb8 O16'
_cell_volume   481.55354020
_cell_formula_units_Z   4
loop_
 _symmetry_equiv_pos_site_id
 _symmetry_equiv_pos_as_xyz
  1  'x, y, z'
loop_
 _atom_site_type_symbol
 _atom_site_label
 _atom_site_symmetry_multiplicity
 _atom_site_fract_x
 _atom_site_fract_y
 _atom_site_fract_z
 _atom_site_occupancy
  Pt  Pt0  1  0.74905200  0.50000000  0.50000000  1
  Pt  Pt1  1  0.25094800  0.00000000  0.00000000  1
  Pt  Pt2  1  0.25094800  0.50000000  0.50000000  1
  Pt  Pt3  1  0.74905200  0.00000000  0.00000000  1
  Pb  Pb4  1  0.50000000  0.14173800  0.65611500  1
  Pb  Pb5  1  0.50000000  0.85826200  0.34388500  1
  Pb  Pb6  1  0.50000000  0.64173800  0.84388500  1
  Pb  Pb7  1  0.50000000  0.35826200  0.15611500  1
  Pb  Pb8  1  0.00000000  0.60942000  0.17486100  1
  Pb  Pb9  1  0.00000000  0.39058000  0.82513900  1
  Pb  Pb10  1  0.00000000  0.10942000  0.32513900  1
  Pb  Pb11  1  0.00000000  0.89058000  0.67486100  1
  O  O12  1  0.00000000  0.60653200  0.60389600  1
  O  O13  1  0.00000000  0.39346800  0.39610400  1
  O  O14  1  0.00000000  0.10653200  0.89610400  1
  O  O15  1  0.00000000  0.89346800  0.10389600  1
  O  O16  1  0.50000000  0.62533700  0.58798800  1
  O  O17  1  0.50000000  0.37466300  0.41201200  1
  O  O18  1  0.50000000  0.12533700  0.91201200  1
  O  O19  1  0.50000000  0.87466300  0.08798800  1
  O  O20  1  0.74950600  0.33341100  0.66615800  1
  O  O21  1  0.74950600  0.66658900  0.33384200  1
  O  O22  1  0.25049400  0.83341100  0.83384200  1
  O  O23  1  0.25049400  0.16658900  0.16615800  1
  O  O24  1  0.74950600  0.83341100  0.83384200  1
  O  O25  1  0.74950600  0.16658900  0.16615800  1
  O  O26  1  0.25049400  0.33341100  0.66615800  1
  O  O27  1  0.25049400  0.66658900  0.33384200  1
