# generated using pymatgen
data_Na5CoO4
_symmetry_space_group_name_H-M   'P 1'
_cell_length_a   6.01030155
_cell_length_b   10.46042262
_cell_length_c   18.01309139
_cell_angle_alpha   90.00000000
_cell_angle_beta   90.00000000
_cell_angle_gamma   90.00000000
_symmetry_Int_Tables_number   1
_chemical_formula_structural   Na5CoO4
_chemical_formula_sum   'Na40 Co8 O32'
_cell_volume   1132.48835670
_cell_formula_units_Z   8
loop_
 _symmetry_equiv_pos_site_id
 _symmetry_equiv_pos_as_xyz
  1  'x, y, z'
loop_
 _atom_site_type_symbol
 _atom_site_label
 _atom_site_symmetry_multiplicity
 _atom_site_fract_x
 _atom_site_fract_y
 _atom_site_fract_z
 _atom_site_occupancy
  O  O0  1  0.86186168  0.04306992  0.12091130  1
  O  O1  1  0.36186308  0.95692987  0.37908873  1
  O  O2  1  0.63813746  0.54307030  0.87908875  1
  O  O3  1  0.13813719  0.45692950  0.62091133  1
  O  O4  1  0.13813719  0.95692987  0.87908875  1
  O  O5  1  0.63813746  0.04306992  0.62091133  1
  O  O6  1  0.36186308  0.45692950  0.12091130  1
  O  O7  1  0.86186168  0.54307030  0.37908873  1
  O  O8  1  0.80927478  0.36608126  0.04684809  1
  O  O9  1  0.30927451  0.63391853  0.45315194  1
  O  O10  1  0.69072436  0.86608164  0.95315196  1
  O  O11  1  0.19072409  0.13391816  0.54684812  1
  O  O12  1  0.19072409  0.63391853  0.95315196  1
  O  O13  1  0.69072436  0.36608126  0.54684812  1
  O  O14  1  0.30927451  0.13391816  0.04684809  1
  O  O15  1  0.80927478  0.86608164  0.45315194  1
  O  O16  1  0.73545872  0.37145295  0.71096991  1
  O  O17  1  0.23545845  0.62854685  0.78903018  1
  O  O18  1  0.76454042  0.87145333  0.28903015  1
  O  O19  1  0.26454015  0.12854647  0.21096988  1
  O  O20  1  0.26454015  0.62854685  0.28903015  1
  O  O21  1  0.76454042  0.37145295  0.21096988  1
  O  O22  1  0.23545845  0.12854647  0.71096991  1
  O  O23  1  0.73545872  0.87145333  0.78903018  1
  O  O24  1  0.74132373  0.13544478  0.87532901  1
  O  O25  1  0.24132346  0.86455502  0.62467052  1
  O  O26  1  0.75867707  0.63544516  0.12467050  1
  O  O27  1  0.25867681  0.36455464  0.37532898  1
  O  O28  1  0.25867681  0.86455502  0.12467050  1
  O  O29  1  0.75867707  0.13544478  0.37532898  1
  O  O30  1  0.24132346  0.36455464  0.87532901  1
  O  O31  1  0.74132373  0.63544516  0.62467052  1
  Na  Na32  1  0.09987262  0.42435944  0.75259923  1
  Na  Na33  1  0.42082960  0.30020646  0.64069314  1
  Na  Na34  1  0.57917093  0.19979296  0.14069312  1
  Na  Na35  1  0.07917067  0.80020684  0.35930691  1
  Na  Na36  1  0.07917067  0.30020646  0.14069312  1
  Na  Na37  1  0.57917093  0.69979333  0.35930691  1
  Na  Na38  1  0.42082960  0.80020684  0.85930694  1
  Na  Na39  1  0.92082987  0.19979296  0.64069314  1
  Na  Na40  1  0.89871804  0.82567938  0.17188474  1
  Na  Na41  1  0.39871777  0.17432042  0.32811529  1
  Na  Na42  1  0.60128276  0.32567996  0.82811532  1
  Na  Na43  1  0.10128249  0.67432080  0.67188477  1
  Na  Na44  1  0.10128249  0.17432042  0.82811532  1
  Na  Na45  1  0.60128276  0.82567938  0.67188477  1
  Na  Na46  1  0.39871777  0.67432080  0.17188474  1
  Na  Na47  1  0.89871804  0.32567996  0.32811529  1
  Na  Na48  1  0.91485898  0.16007468  0.00211474  1
  Na  Na49  1  0.41485871  0.83992511  0.49788529  1
  Na  Na50  1  0.58514182  0.66007410  0.99788532  1
  Na  Na51  1  0.08514155  0.33992570  0.50211477  1
  Na  Na52  1  0.08514155  0.83992511  0.99788532  1
  Na  Na53  1  0.58514182  0.16007468  0.50211477  1
  Na  Na54  1  0.41485871  0.33992570  0.00211474  1
  Na  Na55  1  0.91485898  0.66007410  0.49788529  1
  Na  Na56  1  0.92192620  0.93839169  0.56521336  1
  Na  Na57  1  0.40012764  0.92435886  0.24740083  1
  Na  Na58  1  0.59987289  0.57564035  0.74740085  1
  Na  Na59  1  0.92082987  0.69979333  0.85930694  1
  Na  Na60  1  0.09987262  0.92435886  0.74740085  1
  Na  Na61  1  0.59987289  0.07564094  0.75259923  1
  Na  Na62  1  0.40012764  0.42435944  0.25259920  1
  Na  Na63  1  0.90012791  0.57564035  0.24740083  1
  Na  Na64  1  0.92192620  0.43839131  0.93478672  1
  Na  Na65  1  0.42192593  0.56160849  0.56521336  1
  Na  Na66  1  0.57807461  0.93839169  0.06521334  1
  Na  Na67  1  0.07807434  0.06160907  0.43478669  1
  Na  Na68  1  0.07807434  0.56160849  0.06521334  1
  Na  Na69  1  0.57807461  0.43839131  0.43478669  1
  Na  Na70  1  0.42192593  0.06160907  0.93478672  1
  Na  Na71  1  0.90012791  0.07564094  0.25259920  1
  Co  Co72  1  0.82620925  0.45953472  0.62273619  1
  Co  Co73  1  0.32620898  0.54046603  0.87726389  1
  Co  Co74  1  0.67379155  0.95953414  0.37726386  1
  Co  Co75  1  0.17379128  0.04046565  0.12273616  1
  Co  Co76  1  0.17379128  0.54046603  0.37726386  1
  Co  Co77  1  0.67379155  0.45953472  0.12273616  1
  Co  Co78  1  0.32620898  0.04046565  0.62273619  1
  Co  Co79  1  0.82620925  0.95953414  0.87726389  1
