# generated using pymatgen
data_Fe2P4PbO14
_symmetry_space_group_name_H-M   'P 1'
_cell_length_a   4.87612000
_cell_length_b   7.20441038
_cell_length_c   8.01715658
_cell_angle_alpha   89.48248122
_cell_angle_beta   92.62282738
_cell_angle_gamma   106.69236870
_symmetry_Int_Tables_number   1
_chemical_formula_structural   Fe2P4PbO14
_chemical_formula_sum   'Fe2 P4 Pb1 O14'
_cell_volume   269.48609933
_cell_formula_units_Z   1
loop_
 _symmetry_equiv_pos_site_id
 _symmetry_equiv_pos_as_xyz
  1  'x, y, z'
loop_
 _atom_site_type_symbol
 _atom_site_label
 _atom_site_symmetry_multiplicity
 _atom_site_fract_x
 _atom_site_fract_y
 _atom_site_fract_z
 _atom_site_occupancy
  Fe  Fe0  1  0.00000000  0.00000000  0.50000000  1
  Fe  Fe1  1  0.50000000  0.50000000  0.00000000  1
  P  P2  1  0.38472000  0.77098400  0.29660700  1
  P  P3  1  0.61528000  0.22901600  0.70339300  1
  P  P4  1  0.97068700  0.38174100  0.24684400  1
  P  P5  1  0.02931300  0.61825900  0.75315600  1
  Pb  Pb6  1  0.00000000  0.00000000  0.00000000  1
  O  O7  1  0.48593700  0.75750000  0.11653400  1
  O  O8  1  0.51406300  0.24250000  0.88346600  1
  O  O9  1  0.18587200  0.90417000  0.29308000  1
  O  O10  1  0.81412800  0.09583000  0.70692000  1
  O  O11  1  0.62406100  0.82161800  0.42909200  1
  O  O12  1  0.30255000  0.56357500  0.79580900  1
  O  O13  1  0.69745000  0.43642500  0.20419100  1
  O  O14  1  0.87797500  0.64879800  0.91328200  1
  O  O15  1  0.12202500  0.35120200  0.08671800  1
  O  O16  1  0.08520700  0.79969400  0.64799500  1
  O  O17  1  0.91479300  0.20030600  0.35200500  1
  O  O18  1  0.80605700  0.44414900  0.65157100  1
  O  O19  1  0.19394300  0.55585100  0.34842900  1
  O  O20  1  0.37593900  0.17838200  0.57090800  1
