# generated using pymatgen
data_U(Cr3P2)2
_symmetry_space_group_name_H-M   'P 1'
_cell_length_a   7.03065762
_cell_length_b   7.03065762
_cell_length_c   3.33195800
_cell_angle_alpha   90.00000000
_cell_angle_beta   90.00000000
_cell_angle_gamma   119.99999647
_symmetry_Int_Tables_number   1
_chemical_formula_structural   U(Cr3P2)2
_chemical_formula_sum   'U1 Cr6 P4'
_cell_volume   142.63367247
_cell_formula_units_Z   1
loop_
 _symmetry_equiv_pos_site_id
 _symmetry_equiv_pos_as_xyz
  1  'x, y, z'
loop_
 _atom_site_type_symbol
 _atom_site_label
 _atom_site_symmetry_multiplicity
 _atom_site_fract_x
 _atom_site_fract_y
 _atom_site_fract_z
 _atom_site_occupancy
  U  U0  1  0.00000000  0.00000000  0.00000000  1
  Cr  Cr1  1  0.80002000  0.60004000  0.50000000  1
  Cr  Cr2  1  0.07381800  0.53690900  0.00000000  1
  Cr  Cr3  1  0.46309100  0.92618200  0.00000000  1
  Cr  Cr4  1  0.80002000  0.19998000  0.50000000  1
  Cr  Cr5  1  0.46309100  0.53690900  0.00000000  1
  Cr  Cr6  1  0.39996000  0.19998000  0.50000000  1
  P  P7  1  0.66666700  0.33333300  0.00000000  1
  P  P8  1  0.18790400  0.81209600  0.50000000  1
  P  P9  1  0.18790400  0.37580900  0.50000000  1
  P  P10  1  0.62419100  0.81209600  0.50000000  1
