# generated using pymatgen
data_Na5Mn3F14
_symmetry_space_group_name_H-M   'P 1'
_cell_length_a   7.54956500
_cell_length_b   12.30817500
_cell_length_c   12.62920400
_cell_angle_alpha   90.00000000
_cell_angle_beta   90.00000000
_cell_angle_gamma   90.00000000
_symmetry_Int_Tables_number   1
_chemical_formula_structural   Na5Mn3F14
_chemical_formula_sum   'Na20 Mn12 F56'
_cell_volume   1173.52290225
_cell_formula_units_Z   4
loop_
 _symmetry_equiv_pos_site_id
 _symmetry_equiv_pos_as_xyz
  1  'x, y, z'
loop_
 _atom_site_type_symbol
 _atom_site_label
 _atom_site_symmetry_multiplicity
 _atom_site_fract_x
 _atom_site_fract_y
 _atom_site_fract_z
 _atom_site_occupancy
  Na  Na0  1  0.82377600  0.75792500  0.42055500  1
  Na  Na1  1  0.17622400  0.25792500  0.57944500  1
  Na  Na2  1  0.67622400  0.75792500  0.92055500  1
  Na  Na3  1  0.32377600  0.25792500  0.07944500  1
  Na  Na4  1  0.73236300  0.99736600  0.22916200  1
  Na  Na5  1  0.26763700  0.49736600  0.77083800  1
  Na  Na6  1  0.76763700  0.99736600  0.72916200  1
  Na  Na7  1  0.23236300  0.49736600  0.27083800  1
  Na  Na8  1  0.79741800  0.25320400  0.07744900  1
  Na  Na9  1  0.20258200  0.75320400  0.92255100  1
  Na  Na10  1  0.70258200  0.25320400  0.57744900  1
  Na  Na11  1  0.29741800  0.75320400  0.42255100  1
  Na  Na12  1  0.72109400  0.49984500  0.23737700  1
  Na  Na13  1  0.27890600  0.99984500  0.76262300  1
  Na  Na14  1  0.77890600  0.49984500  0.73737700  1
  Na  Na15  1  0.22109400  0.99984500  0.26262300  1
  Na  Na16  1  0.02750400  0.03459200  0.02033000  1
  Na  Na17  1  0.97249600  0.53459200  0.97967000  1
  Na  Na18  1  0.47249600  0.03459200  0.52033000  1
  Na  Na19  1  0.52750400  0.53459200  0.47967000  1
  Mn  Mn20  1  0.50026300  0.24558000  0.33557400  1
  Mn  Mn21  1  0.49973700  0.74558000  0.66442600  1
  Mn  Mn22  1  0.99973700  0.24558000  0.83557400  1
  Mn  Mn23  1  0.00026300  0.74558000  0.16442600  1
  Mn  Mn24  1  0.99659500  0.49975100  0.50203500  1
  Mn  Mn25  1  0.00340500  0.99975100  0.49796500  1
  Mn  Mn26  1  0.50340500  0.49975100  0.00203500  1
  Mn  Mn27  1  0.49659500  0.99975100  0.99796500  1
  Mn  Mn28  1  0.99999600  0.24662200  0.31190500  1
  Mn  Mn29  1  0.00000400  0.74662200  0.68809500  1
  Mn  Mn30  1  0.50000400  0.24662200  0.81190500  1
  Mn  Mn31  1  0.49999600  0.74662200  0.18809500  1
  F  F32  1  0.42002300  0.36024800  0.92352600  1
  F  F33  1  0.57997700  0.86024800  0.07647400  1
  F  F34  1  0.07997700  0.36024800  0.42352600  1
  F  F35  1  0.92002300  0.86024800  0.57647400  1
  F  F36  1  0.57468200  0.25172200  0.19401200  1
  F  F37  1  0.42531800  0.75172200  0.80598800  1
  F  F38  1  0.92531800  0.25172200  0.69401200  1
  F  F39  1  0.07468200  0.75172200  0.30598800  1
  F  F40  1  0.13143000  0.44751400  0.61676100  1
  F  F41  1  0.86857000  0.94751400  0.38323900  1
  F  F42  1  0.36857000  0.44751400  0.11676100  1
  F  F43  1  0.63143000  0.94751400  0.88323900  1
  F  F44  1  0.26993700  0.74450700  0.11502600  1
  F  F45  1  0.73006300  0.24450700  0.88497400  1
  F  F46  1  0.23006300  0.74450700  0.61502600  1
  F  F47  1  0.76993700  0.24450700  0.38497400  1
  F  F48  1  0.45909500  0.62924800  0.30041600  1
  F  F49  1  0.54090500  0.12924800  0.69958400  1
  F  F50  1  0.04090500  0.62924800  0.80041600  1
  F  F51  1  0.95909500  0.12924800  0.19958400  1
  F  F52  1  0.71375300  0.43761200  0.05869800  1
  F  F53  1  0.28624700  0.93761200  0.94130200  1
  F  F54  1  0.78624700  0.43761200  0.55869800  1
  F  F55  1  0.21375300  0.93761200  0.44130200  1
  F  F56  1  0.20059100  0.56815400  0.44574900  1
  F  F57  1  0.79940900  0.06815400  0.55425100  1
  F  F58  1  0.29940900  0.56815400  0.94574900  1
  F  F59  1  0.70059100  0.06815400  0.05425100  1
  F  F60  1  0.43547900  0.85698500  0.28044600  1
  F  F61  1  0.56452100  0.35698500  0.71955400  1
  F  F62  1  0.06452100  0.85698500  0.78044600  1
  F  F63  1  0.93547900  0.35698500  0.21955400  1
  F  F64  1  0.74548100  0.75601100  0.24119000  1
  F  F65  1  0.25451900  0.25601100  0.75881000  1
  F  F66  1  0.75451900  0.75601100  0.74119000  1
  F  F67  1  0.24548100  0.25601100  0.25881000  1
  F  F68  1  0.56124300  0.73299900  0.51789100  1
  F  F69  1  0.43875700  0.23299900  0.48210900  1
  F  F70  1  0.93875700  0.73299900  0.01789100  1
  F  F71  1  0.06124300  0.23299900  0.98210900  1
  F  F72  1  0.65168900  0.55977000  0.89542100  1
  F  F73  1  0.34831100  0.05977000  0.10457900  1
  F  F74  1  0.84831100  0.55977000  0.39542100  1
  F  F75  1  0.15168900  0.05977000  0.60457900  1
  F  F76  1  0.49753200  0.09110200  0.33204500  1
  F  F77  1  0.50246800  0.59110200  0.66795500  1
  F  F78  1  0.00246800  0.09110200  0.83204500  1
  F  F79  1  0.99753200  0.59110200  0.16795500  1
  F  F80  1  0.00167500  0.89981900  0.15303600  1
  F  F81  1  0.99832500  0.39981900  0.84696400  1
  F  F82  1  0.49832500  0.89981900  0.65303600  1
  F  F83  1  0.50167500  0.39981900  0.34696400  1
  F  F84  1  0.92010500  0.63972500  0.59301300  1
  F  F85  1  0.07989500  0.13972500  0.40698700  1
  F  F86  1  0.57989500  0.63972500  0.09301300  1
  F  F87  1  0.42010500  0.13972500  0.90698700  1
