# generated using pymatgen
data_V2CoP2(H4O7)2
_symmetry_space_group_name_H-M   'P 1'
_cell_length_a   6.34976258
_cell_length_b   6.34978922
_cell_length_c   8.09282312
_cell_angle_alpha   66.90019056
_cell_angle_beta   113.09967929
_cell_angle_gamma   89.99964115
_symmetry_Int_Tables_number   1
_chemical_formula_structural   V2CoP2(H4O7)2
_chemical_formula_sum   'V2 Co1 P2 H8 O14'
_cell_volume   271.46649193
_cell_formula_units_Z   1
loop_
 _symmetry_equiv_pos_site_id
 _symmetry_equiv_pos_as_xyz
  1  'x, y, z'
loop_
 _atom_site_type_symbol
 _atom_site_label
 _atom_site_symmetry_multiplicity
 _atom_site_fract_x
 _atom_site_fract_y
 _atom_site_fract_z
 _atom_site_occupancy
  V  V0  1  0.27780500  0.72219900  0.55560000  1
  V  V1  1  0.72235200  0.27763000  0.44475900  1
  Co  Co2  1  0.00005700  0.99994300  0.00011300  1
  P  P3  1  0.24999800  0.24998400  0.50001500  1
  P  P4  1  0.75001600  0.75000300  0.50000900  1
  H  H5  1  0.11282000  0.41956000  0.87964400  1
  H  H6  1  0.58043800  0.23317200  0.87964200  1
  H  H7  1  0.29920200  0.88717200  0.87965300  1
  H  H8  1  0.76682800  0.70080100  0.87964800  1
  H  H9  1  0.88710100  0.58061000  0.12019100  1
  H  H10  1  0.23309100  0.29918900  0.12018800  1
  H  H11  1  0.41939300  0.76691100  0.12019500  1
  H  H12  1  0.70080800  0.11290500  0.12018400  1
  O  O13  1  0.84411400  0.15588800  0.68825400  1
  O  O14  1  0.15608100  0.84391800  0.31212800  1
  O  O15  1  0.18224700  0.27032500  0.99998300  1
  O  O16  1  0.72967300  0.18226700  0.99998100  1
  O  O17  1  0.27031700  0.81774500  0.99999300  1
  O  O18  1  0.81774100  0.72968600  0.99999000  1
  O  O19  1  0.29753800  0.98579700  0.63744400  1
  O  O20  1  0.33986600  0.37673700  0.63744100  1
  O  O21  1  0.62326000  0.70246500  0.63743300  1
  O  O22  1  0.37676500  0.29755900  0.36252600  1
  O  O23  1  0.70243600  0.01427600  0.36251100  1
  O  O24  1  0.98572300  0.33989100  0.36251000  1
  O  O25  1  0.01420400  0.66013100  0.63744400  1
  O  O26  1  0.66011600  0.62323800  0.36251800  1
