# generated using pymatgen
data_K5SnBi3
_symmetry_space_group_name_H-M   'P 1'
_cell_length_a   8.95811900
_cell_length_b   10.25989000
_cell_length_c   19.50411020
_cell_angle_alpha   58.37423172
_cell_angle_beta   90.00000000
_cell_angle_gamma   90.00000000
_symmetry_Int_Tables_number   1
_chemical_formula_structural   K5SnBi3
_chemical_formula_sum   'K20 Sn4 Bi12'
_cell_volume   1526.39112687
_cell_formula_units_Z   4
loop_
 _symmetry_equiv_pos_site_id
 _symmetry_equiv_pos_as_xyz
  1  'x, y, z'
loop_
 _atom_site_type_symbol
 _atom_site_label
 _atom_site_symmetry_multiplicity
 _atom_site_fract_x
 _atom_site_fract_y
 _atom_site_fract_z
 _atom_site_occupancy
  K  K0  1  0.31681900  0.15591100  0.92176300  1
  K  K1  1  0.81681900  0.84408900  0.57823700  1
  K  K2  1  0.68318100  0.84408900  0.07823700  1
  K  K3  1  0.18318100  0.15591100  0.42176300  1
  K  K4  1  0.01808700  0.74058100  0.42385500  1
  K  K5  1  0.51808700  0.25941900  0.07614500  1
  K  K6  1  0.98191300  0.25941900  0.57614500  1
  K  K7  1  0.48191300  0.74058100  0.92385500  1
  K  K8  1  0.00328200  0.45039200  0.74351900  1
  K  K9  1  0.50328200  0.54960800  0.75648100  1
  K  K10  1  0.99671800  0.54960800  0.25648100  1
  K  K11  1  0.49671800  0.45039200  0.24351900  1
  K  K12  1  0.83914900  0.16391600  0.26067700  1
  K  K13  1  0.33914900  0.83608400  0.23932300  1
  K  K14  1  0.16085100  0.83608400  0.73932300  1
  K  K15  1  0.66085100  0.16391600  0.76067700  1
  K  K16  1  0.00173300  0.12354400  0.08667600  1
  K  K17  1  0.50173300  0.87645600  0.41332400  1
  K  K18  1  0.99826700  0.87645600  0.91332400  1
  K  K19  1  0.49826700  0.12354400  0.58667600  1
  Sn  Sn20  1  0.14646400  0.48482000  0.08809700  1
  Sn  Sn21  1  0.64646400  0.51518000  0.41190300  1
  Sn  Sn22  1  0.85353600  0.51518000  0.91190300  1
  Sn  Sn23  1  0.35353600  0.48482000  0.58809700  1
  Bi  Bi24  1  0.19154600  0.48573600  0.93312400  1
  Bi  Bi25  1  0.69154600  0.51426400  0.56687600  1
  Bi  Bi26  1  0.80845400  0.51426400  0.06687600  1
  Bi  Bi27  1  0.30845400  0.48573600  0.43312400  1
  Bi  Bi28  1  0.26471700  0.76274000  0.08110700  1
  Bi  Bi29  1  0.76471700  0.23726000  0.41889300  1
  Bi  Bi30  1  0.73528300  0.23726000  0.91889300  1
  Bi  Bi31  1  0.23528300  0.76274000  0.58110700  1
  Bi  Bi32  1  0.23946100  0.18818400  0.23003200  1
  Bi  Bi33  1  0.73946100  0.81181600  0.26996800  1
  Bi  Bi34  1  0.76053900  0.81181600  0.76996800  1
  Bi  Bi35  1  0.26053900  0.18818400  0.73003200  1
