# generated using pymatgen
data_Ce4Ge9Rh13
_symmetry_space_group_name_H-M   'P 1'
_cell_length_a   3.98185338
_cell_length_b   11.38274284
_cell_length_c   19.67599137
_cell_angle_alpha   90.00000000
_cell_angle_beta   90.00000000
_cell_angle_gamma   90.00000000
_symmetry_Int_Tables_number   1
_chemical_formula_structural   Ce4Ge9Rh13
_chemical_formula_sum   'Ce8 Ge18 Rh26'
_cell_volume   891.80276004
_cell_formula_units_Z   2
loop_
 _symmetry_equiv_pos_site_id
 _symmetry_equiv_pos_as_xyz
  1  'x, y, z'
loop_
 _atom_site_type_symbol
 _atom_site_label
 _atom_site_symmetry_multiplicity
 _atom_site_fract_x
 _atom_site_fract_y
 _atom_site_fract_z
 _atom_site_occupancy
  Ge  Ge0  1  0.25000000  0.25000000  0.60187188  1
  Ge  Ge1  1  0.75000000  0.75000000  0.39812812  1
  Ge  Ge2  1  0.25000000  0.06128983  0.41915705  1
  Ge  Ge3  1  0.75000000  0.93871017  0.58084295  1
  Ge  Ge4  1  0.75000000  0.56128983  0.58084295  1
  Ge  Ge5  1  0.25000000  0.43871017  0.41915705  1
  Ge  Ge6  1  0.25000000  0.56658897  0.91520558  1
  Ge  Ge7  1  0.75000000  0.43341103  0.08479442  1
  Ge  Ge8  1  0.75000000  0.06658897  0.08479442  1
  Ge  Ge9  1  0.25000000  0.93341103  0.91520558  1
  Ge  Ge10  1  0.25000000  0.62376599  0.22979470  1
  Ge  Ge11  1  0.75000000  0.37623401  0.77020530  1
  Ge  Ge12  1  0.75000000  0.12376599  0.77020530  1
  Ge  Ge13  1  0.25000000  0.87623401  0.22979470  1
  Ge  Ge14  1  0.25000000  0.75000000  0.10267154  1
  Ge  Ge15  1  0.75000000  0.25000000  0.89732846  1
  Ge  Ge16  1  0.25000000  0.25000000  0.23083784  1
  Ge  Ge17  1  0.75000000  0.75000000  0.76916216  1
  Rh  Rh18  1  0.25000000  0.44953512  0.54618487  1
  Rh  Rh19  1  0.75000000  0.55046488  0.45381513  1
  Rh  Rh20  1  0.75000000  0.94953512  0.45381513  1
  Rh  Rh21  1  0.25000000  0.05046488  0.54618487  1
  Rh  Rh22  1  0.25000000  0.43520176  0.16475390  1
  Rh  Rh23  1  0.75000000  0.56479824  0.83524610  1
  Rh  Rh24  1  0.75000000  0.93520176  0.83524610  1
  Rh  Rh25  1  0.25000000  0.06479824  0.16475390  1
  Rh  Rh26  1  0.25000000  0.37672563  0.85455629  1
  Rh  Rh27  1  0.75000000  0.62327437  0.14544371  1
  Rh  Rh28  1  0.75000000  0.87672563  0.14544371  1
  Rh  Rh29  1  0.25000000  0.12327437  0.85455629  1
  Rh  Rh30  1  0.25000000  0.55865539  0.04068775  1
  Rh  Rh31  1  0.75000000  0.44134461  0.95931225  1
  Rh  Rh32  1  0.75000000  0.05865539  0.95931225  1
  Rh  Rh33  1  0.25000000  0.94134461  0.04068775  1
  Rh  Rh34  1  0.25000000  0.62680169  0.35686544  1
  Rh  Rh35  1  0.75000000  0.37319831  0.64313456  1
  Rh  Rh36  1  0.75000000  0.12680169  0.64313456  1
  Rh  Rh37  1  0.25000000  0.87319831  0.35686544  1
  Rh  Rh38  1  0.25000000  0.75000000  0.84402406  1
  Rh  Rh39  1  0.75000000  0.25000000  0.15597594  1
  Rh  Rh40  1  0.25000000  0.25000000  0.35701051  1
  Rh  Rh41  1  0.75000000  0.75000000  0.64298949  1
  Rh  Rh42  1  0.25000000  0.25000000  0.72740972  1
  Rh  Rh43  1  0.75000000  0.75000000  0.27259028  1
  Ce  Ce44  1  0.25000000  0.56025166  0.70801740  1
  Ce  Ce45  1  0.75000000  0.43974834  0.29198260  1
  Ce  Ce46  1  0.75000000  0.06025166  0.29198260  1
  Ce  Ce47  1  0.25000000  0.93974834  0.70801740  1
  Ce  Ce48  1  0.25000000  0.75000000  0.52128326  1
  Ce  Ce49  1  0.75000000  0.25000000  0.47871674  1
  Ce  Ce50  1  0.25000000  0.25000000  0.02020504  1
  Ce  Ce51  1  0.75000000  0.75000000  0.97979496  1
