# generated using pymatgen
data_Mn2BO4
_symmetry_space_group_name_H-M   'P 1'
_cell_length_a   3.31694970
_cell_length_b   9.42862457
_cell_length_c   9.63219172
_cell_angle_alpha   90.00000000
_cell_angle_beta   90.00000000
_cell_angle_gamma   90.69965326
_symmetry_Int_Tables_number   1
_chemical_formula_structural   Mn2BO4
_chemical_formula_sum   'Mn8 B4 O16'
_cell_volume   301.21733784
_cell_formula_units_Z   4
loop_
 _symmetry_equiv_pos_site_id
 _symmetry_equiv_pos_as_xyz
  1  'x, y, z'
loop_
 _atom_site_type_symbol
 _atom_site_label
 _atom_site_symmetry_multiplicity
 _atom_site_fract_x
 _atom_site_fract_y
 _atom_site_fract_z
 _atom_site_occupancy
  B  B0  1  0.30013886  0.36771698  0.16949739  1
  B  B1  1  0.19986055  0.13228372  0.66949699  1
  B  B2  1  0.69986296  0.63228335  0.83050286  1
  B  B3  1  0.80013824  0.86771662  0.33050326  1
  O  O4  1  0.78223481  0.38751360  0.48851662  1
  O  O5  1  0.26952896  0.13075454  0.53019554  1
  O  O6  1  0.76953136  0.63075417  0.96980431  1
  O  O7  1  0.73046984  0.86924580  0.46980366  1
  O  O8  1  0.71776683  0.11248632  0.98851622  1
  O  O9  1  0.23047046  0.36924616  0.03019594  1
  O  O10  1  0.28223495  0.88751295  0.01148298  1
  O  O11  1  0.21776701  0.61248674  0.51148363  1
  O  O12  1  0.84758201  -0.00385395  0.25927407  1
  O  O13  1  0.65241616  0.50385392  0.75927367  1
  O  O14  1  0.31803189  0.23830994  0.24074951  1
  O  O15  1  0.34758263  0.49614642  0.24072553  1
  O  O16  1  0.81803130  0.73831064  0.25925009  1
  O  O17  1  0.68196688  0.76168933  0.75925074  1
  O  O18  1  0.18196750  0.26168970  0.74074911  1
  O  O19  1  0.15241675  1.00385322  0.74072618  1
  Mn  Mn20  1  0.27296743  0.68027639  0.09760794  1
  Mn  Mn21  1  0.22703151  0.81972330  0.59760754  1
  Mn  Mn22  1  0.72703136  0.31972394  0.90239231  1
  Mn  Mn23  1  0.77296725  0.18027597  0.40239166  1
  Mn  Mn24  1  0.27270118  0.06324096  0.11822038  1
  Mn  Mn25  1  0.22729820  0.43675867  0.61821998  1
  Mn  Mn26  1  0.72729758  0.93675831  0.88177987  1
  Mn  Mn27  1  0.77270060  0.56324167  0.38177922  1
