# generated using pymatgen
data_Te4Pd9
_symmetry_space_group_name_H-M   'P 1'
_cell_length_a   14.18898300
_cell_length_b   7.56321600
_cell_length_c   9.03858185
_cell_angle_alpha   88.37235100
_cell_angle_beta   90.00000000
_cell_angle_gamma   90.00000000
_symmetry_Int_Tables_number   1
_chemical_formula_structural   Te4Pd9
_chemical_formula_sum   'Te16 Pd36'
_cell_volume   969.57811583
_cell_formula_units_Z   4
loop_
 _symmetry_equiv_pos_site_id
 _symmetry_equiv_pos_as_xyz
  1  'x, y, z'
loop_
 _atom_site_type_symbol
 _atom_site_label
 _atom_site_symmetry_multiplicity
 _atom_site_fract_x
 _atom_site_fract_y
 _atom_site_fract_z
 _atom_site_occupancy
  Te  Te0  1  0.99596100  0.24617800  0.85302600  1
  Te  Te1  1  0.49596100  0.75382200  0.64697400  1
  Te  Te2  1  0.00403900  0.75382200  0.14697400  1
  Te  Te3  1  0.50403900  0.24617800  0.35302600  1
  Te  Te4  1  0.49497800  0.29693300  0.88833700  1
  Te  Te5  1  0.99497800  0.70306700  0.61166300  1
  Te  Te6  1  0.50502200  0.70306700  0.11166300  1
  Te  Te7  1  0.00502200  0.29693300  0.38833700  1
  Te  Te8  1  0.73739500  0.04796100  0.64180000  1
  Te  Te9  1  0.23739500  0.95203900  0.85820000  1
  Te  Te10  1  0.26260500  0.95203900  0.35820000  1
  Te  Te11  1  0.76260500  0.04796100  0.14180000  1
  Te  Te12  1  0.24823700  0.46109000  0.56777400  1
  Te  Te13  1  0.74823700  0.53891000  0.93222600  1
  Te  Te14  1  0.75176300  0.53891000  0.43222600  1
  Te  Te15  1  0.25176300  0.46109000  0.06777400  1
  Pd  Pd16  1  0.67818500  0.20663300  0.89505700  1
  Pd  Pd17  1  0.17818500  0.79336700  0.60494300  1
  Pd  Pd18  1  0.32181500  0.79336700  0.10494300  1
  Pd  Pd19  1  0.82181500  0.20663300  0.39505700  1
  Pd  Pd20  1  0.30593500  0.27624900  0.82565600  1
  Pd  Pd21  1  0.80593500  0.72375100  0.67434400  1
  Pd  Pd22  1  0.69406500  0.72375100  0.17434400  1
  Pd  Pd23  1  0.19406500  0.27624900  0.32565600  1
  Pd  Pd24  1  0.93754200  0.03924700  0.61179500  1
  Pd  Pd25  1  0.43754200  0.96075300  0.88820500  1
  Pd  Pd26  1  0.06245800  0.96075300  0.38820500  1
  Pd  Pd27  1  0.56245800  0.03924700  0.11179500  1
  Pd  Pd28  1  0.54802500  0.11017700  0.64296500  1
  Pd  Pd29  1  0.04802500  0.88982300  0.85703500  1
  Pd  Pd30  1  0.45197500  0.88982300  0.35703500  1
  Pd  Pd31  1  0.95197500  0.11017700  0.14296500  1
  Pd  Pd32  1  0.34947900  0.01607200  0.60821500  1
  Pd  Pd33  1  0.84947900  0.98392800  0.89178500  1
  Pd  Pd34  1  0.65052100  0.98392800  0.39178500  1
  Pd  Pd35  1  0.15052100  0.01607200  0.10821500  1
  Pd  Pd36  1  0.13987300  0.16917800  0.63881800  1
  Pd  Pd37  1  0.63987300  0.83082200  0.86118200  1
  Pd  Pd38  1  0.86012700  0.83082200  0.36118200  1
  Pd  Pd39  1  0.36012700  0.16917800  0.13881800  1
  Pd  Pd40  1  0.83011800  0.34461500  0.70166000  1
  Pd  Pd41  1  0.33011800  0.65538500  0.79834000  1
  Pd  Pd42  1  0.16988200  0.65538500  0.29834000  1
  Pd  Pd43  1  0.66988200  0.34461500  0.20166000  1
  Pd  Pd44  1  0.63191700  0.49973300  0.69188500  1
  Pd  Pd45  1  0.13191700  0.50026700  0.80811500  1
  Pd  Pd46  1  0.36808300  0.50026700  0.30811500  1
  Pd  Pd47  1  0.86808300  0.49973300  0.19188500  1
  Pd  Pd48  1  0.43535700  0.41482900  0.60630000  1
  Pd  Pd49  1  0.93535700  0.58517100  0.89370000  1
  Pd  Pd50  1  0.56464300  0.58517100  0.39370000  1
  Pd  Pd51  1  0.06464300  0.41482900  0.10630000  1
