# generated using pymatgen
data_LiVP2O7
_symmetry_space_group_name_H-M   'P 1'
_cell_length_a   6.47321892
_cell_length_b   6.47917985
_cell_length_c   12.39873903
_cell_angle_alpha   75.84034137
_cell_angle_beta   75.85312868
_cell_angle_gamma   79.61991250
_symmetry_Int_Tables_number   1
_chemical_formula_structural   LiVP2O7
_chemical_formula_sum   'Li4 V4 P8 O28'
_cell_volume   484.90174717
_cell_formula_units_Z   4
loop_
 _symmetry_equiv_pos_site_id
 _symmetry_equiv_pos_as_xyz
  1  'x, y, z'
loop_
 _atom_site_type_symbol
 _atom_site_label
 _atom_site_symmetry_multiplicity
 _atom_site_fract_x
 _atom_site_fract_y
 _atom_site_fract_z
 _atom_site_occupancy
  Li  Li0  1  0.25031500  0.74917400  0.00053900  1
  Li  Li1  1  0.50053200  0.99982700  0.24971300  1
  Li  Li2  1  0.74996100  0.25012200  0.49978300  1
  Li  Li3  1  0.00003100  0.49976700  0.75034000  1
  V  V4  1  0.62458100  0.87460700  0.74988200  1
  V  V5  1  0.87430900  0.12457600  0.99943700  1
  V  V6  1  0.12524300  0.37570600  0.25028200  1
  V  V7  1  0.37482300  0.62525300  0.49989100  1
  P  P8  1  0.74660400  0.66641200  0.99907700  1
  P  P9  1  0.99564200  0.91719700  0.24885100  1
  P  P10  1  0.24652500  0.16687000  0.49906300  1
  P  P11  1  0.49679700  0.41654900  0.74900200  1
  P  P12  1  0.58342600  0.50345200  0.25082500  1
  P  P13  1  0.83307300  0.75350600  0.50090100  1
  P  P14  1  0.08309500  0.00387500  0.75076700  1
  P  P15  1  0.33287200  0.25458400  0.00096800  1
  O  O16  1  0.59640200  0.65353700  0.12500600  1
  O  O17  1  0.84665300  0.90332900  0.37505200  1
  O  O18  1  0.09660300  0.15334300  0.62493300  1
  O  O19  1  0.34654200  0.40336000  0.87486900  1
  O  O20  1  0.91915400  0.80593100  0.99347000  1
  O  O21  1  0.16772900  0.05776500  0.24266300  1
  O  O22  1  0.41880500  0.30687600  0.49307200  1
  O  O23  1  0.66922000  0.55626300  0.74327600  1
  O  O24  1  0.44373600  0.33096100  0.25661600  1
  O  O25  1  0.69299000  0.58127500  0.50691300  1
  O  O26  1  0.94278600  0.83170700  0.75713200  1
  O  O27  1  0.19212300  0.08254800  0.00744700  1
  O  O28  1  0.58060000  0.76900600  0.92433600  1
  O  O29  1  0.82937000  0.01812000  0.17428000  1
  O  O30  1  0.08040000  0.26865500  0.42434200  1
  O  O31  1  0.33096800  0.51881500  0.67415900  1
  O  O32  1  0.48102600  0.66905400  0.32579700  1
  O  O33  1  0.73127700  0.91916800  0.57580500  1
  O  O34  1  0.98181800  0.16975400  0.82550700  1
  O  O35  1  0.23222900  0.42039500  0.07572600  1
  O  O36  1  0.85123200  0.44543100  0.98065500  1
  O  O37  1  0.10102600  0.69586900  0.23033100  1
  O  O38  1  0.35122500  0.94582300  0.48035700  1
  O  O39  1  0.60145600  0.19553000  0.73051900  1
  O  O40  1  0.80456400  0.39878900  0.26943100  1
  O  O41  1  0.05423900  0.64864100  0.51968000  1
  O  O42  1  0.30427500  0.89892500  0.76968300  1
  O  O43  1  0.55431600  0.14905800  0.01962300  1
