# generated using pymatgen
data_LiMnPO4F
_symmetry_space_group_name_H-M   'P 1'
_cell_length_a   5.17798166
_cell_length_b   5.32406780
_cell_length_c   7.38699934
_cell_angle_alpha   108.42485520
_cell_angle_beta   104.48099797
_cell_angle_gamma   97.99152744
_symmetry_Int_Tables_number   1
_chemical_formula_structural   LiMnPO4F
_chemical_formula_sum   'Li2 Mn2 P2 O8 F2'
_cell_volume   181.72008138
_cell_formula_units_Z   2
loop_
 _symmetry_equiv_pos_site_id
 _symmetry_equiv_pos_as_xyz
  1  'x, y, z'
loop_
 _atom_site_type_symbol
 _atom_site_label
 _atom_site_symmetry_multiplicity
 _atom_site_fract_x
 _atom_site_fract_y
 _atom_site_fract_z
 _atom_site_occupancy
  Li  Li0  1  0.91100073  0.56433364  0.18742386  1
  Li  Li1  1  0.08899927  0.43566636  0.81257614  1
  Mn  Mn2  1  0.00000000  0.00000000  0.00000000  1
  Mn  Mn3  1  0.50000000  0.50000000  0.50000000  1
  P  P4  1  0.45107545  0.11843323  0.76649945  1
  P  P5  1  0.54892455  0.88156677  0.23350055  1
  O  O6  1  0.70694491  0.83508066  0.07606431  1
  O  O7  1  0.63893150  0.68055584  0.33714293  1
  O  O8  1  0.36106850  0.31944416  0.66285707  1
  O  O9  1  0.62979663  0.17639963  0.37995892  1
  O  O10  1  0.29305509  0.16491934  0.92393569  1
  O  O11  1  0.37020337  0.82360037  0.62004108  1
  O  O12  1  0.23270777  0.78254657  0.11731025  1
  O  O13  1  0.76729223  0.21745343  0.88268975  1
  F  F14  1  0.11813998  0.33998163  0.26839819  1
  F  F15  1  0.88186002  0.66001837  0.73160181  1
