# generated using pymatgen
data_LiMo(PO3)4
_symmetry_space_group_name_H-M   'P 1'
_cell_length_a   8.35193600
_cell_length_b   9.60225100
_cell_length_c   13.00008800
_cell_angle_alpha   90.00000000
_cell_angle_beta   90.00000000
_cell_angle_gamma   90.00000000
_symmetry_Int_Tables_number   1
_chemical_formula_structural   LiMo(PO3)4
_chemical_formula_sum   'Li4 Mo4 P16 O48'
_cell_volume   1042.57307287
_cell_formula_units_Z   4
loop_
 _symmetry_equiv_pos_site_id
 _symmetry_equiv_pos_as_xyz
  1  'x, y, z'
loop_
 _atom_site_type_symbol
 _atom_site_label
 _atom_site_symmetry_multiplicity
 _atom_site_fract_x
 _atom_site_fract_y
 _atom_site_fract_z
 _atom_site_occupancy
  Li  Li0  1  0.00443900  0.25000000  0.00000000  1
  Li  Li1  1  0.99556100  0.75000000  0.00000000  1
  Li  Li2  1  0.49556100  0.75000000  0.50000000  1
  Li  Li3  1  0.50443900  0.25000000  0.50000000  1
  Mo  Mo4  1  0.37065700  0.75000000  0.00000000  1
  Mo  Mo5  1  0.62934300  0.25000000  0.00000000  1
  Mo  Mo6  1  0.12934300  0.25000000  0.50000000  1
  Mo  Mo7  1  0.87065700  0.75000000  0.50000000  1
  P  P8  1  0.82469700  0.49612900  0.86296800  1
  P  P9  1  0.17530300  0.99612900  0.86296800  1
  P  P10  1  0.53491300  0.99101300  0.84642400  1
  P  P11  1  0.46508700  0.49101300  0.84642400  1
  P  P12  1  0.17530300  0.50387100  0.13703200  1
  P  P13  1  0.82469700  0.00387100  0.13703200  1
  P  P14  1  0.46508700  0.00898700  0.15357600  1
  P  P15  1  0.53491300  0.50898700  0.15357600  1
  P  P16  1  0.03491300  0.50898700  0.34642400  1
  P  P17  1  0.96508700  0.00898700  0.34642400  1
  P  P18  1  0.96508700  0.49101300  0.65357600  1
  P  P19  1  0.67530300  0.50387100  0.36296800  1
  P  P20  1  0.32469700  0.49612900  0.63703200  1
  P  P21  1  0.67530300  0.99612900  0.63703200  1
  P  P22  1  0.03491300  0.99101300  0.65357600  1
  P  P23  1  0.32469700  0.00387100  0.36296800  1
  O  O24  1  0.86943400  0.87956400  0.36878100  1
  O  O25  1  0.90722500  0.62397000  0.89738300  1
  O  O26  1  0.54188800  0.87623200  0.92565000  1
  O  O27  1  0.45811200  0.37623200  0.92565000  1
  O  O28  1  0.18378500  0.62846400  0.06454800  1
  O  O29  1  0.81621500  0.12846400  0.06454800  1
  O  O30  1  0.45811200  0.12376800  0.07435000  1
  O  O31  1  0.54188800  0.62376800  0.07435000  1
  O  O32  1  0.09277500  0.37603000  0.10261700  1
  O  O33  1  0.90722500  0.87603000  0.10261700  1
  O  O34  1  0.36943400  0.87956400  0.13121900  1
  O  O35  1  0.63056600  0.37956400  0.13121900  1
  O  O36  1  0.35302500  0.46686100  0.17757500  1
  O  O37  1  0.64697500  0.96686100  0.17757500  1
  O  O38  1  0.09528000  0.57099400  0.23942700  1
  O  O39  1  0.90472000  0.07099400  0.23942700  1
  O  O40  1  0.40472000  0.07099400  0.26057300  1
  O  O41  1  0.59528000  0.57099400  0.26057300  1
  O  O42  1  0.14697500  0.96686100  0.32242500  1
  O  O43  1  0.85302500  0.46686100  0.32242500  1
  O  O44  1  0.13056600  0.37956400  0.36878100  1
  O  O45  1  0.81621500  0.37153600  0.93545200  1
  O  O46  1  0.40722500  0.87603000  0.39738300  1
  O  O47  1  0.59277500  0.37603000  0.39738300  1
  O  O48  1  0.04188800  0.62376800  0.42565000  1
  O  O49  1  0.95811200  0.12376800  0.42565000  1
  O  O50  1  0.31621500  0.12846400  0.43545200  1
  O  O51  1  0.68378500  0.62846400  0.43545200  1
  O  O52  1  0.31621500  0.37153600  0.56454800  1
  O  O53  1  0.68378500  0.87153600  0.56454800  1
  O  O54  1  0.04188800  0.87623200  0.57435000  1
  O  O55  1  0.95811200  0.37623200  0.57435000  1
  O  O56  1  0.40722500  0.62397000  0.60261700  1
  O  O57  1  0.59277500  0.12397000  0.60261700  1
  O  O58  1  0.13056600  0.12043600  0.63121900  1
  O  O59  1  0.86943400  0.62043600  0.63121900  1
  O  O60  1  0.14697500  0.53313900  0.67757500  1
  O  O61  1  0.85302500  0.03313900  0.67757500  1
  O  O62  1  0.40472000  0.42900600  0.73942700  1
  O  O63  1  0.59528000  0.92900600  0.73942700  1
  O  O64  1  0.09528000  0.92900600  0.76057300  1
  O  O65  1  0.90472000  0.42900600  0.76057300  1
  O  O66  1  0.35302500  0.03313900  0.82242500  1
  O  O67  1  0.64697500  0.53313900  0.82242500  1
  O  O68  1  0.36943400  0.62043600  0.86878100  1
  O  O69  1  0.63056600  0.12043600  0.86878100  1
  O  O70  1  0.09277500  0.12397000  0.89738300  1
  O  O71  1  0.18378500  0.87153600  0.93545200  1
