# generated using pymatgen
data_Be2CoH20N2(O3F4)2
_symmetry_space_group_name_H-M   'P 1'
_cell_length_a   12.63762500
_cell_length_b   6.20046500
_cell_length_c   9.35490069
_cell_angle_alpha   73.25252942
_cell_angle_beta   90.00000000
_cell_angle_gamma   90.00000000
_symmetry_Int_Tables_number   1
_chemical_formula_structural   Be2CoH20N2(O3F4)2
_chemical_formula_sum   'Be4 Co2 H40 N4 O12 F16'
_cell_volume   701.94942845
_cell_formula_units_Z   2
loop_
 _symmetry_equiv_pos_site_id
 _symmetry_equiv_pos_as_xyz
  1  'x, y, z'
loop_
 _atom_site_type_symbol
 _atom_site_label
 _atom_site_symmetry_multiplicity
 _atom_site_fract_x
 _atom_site_fract_y
 _atom_site_fract_z
 _atom_site_occupancy
  Be  Be0  1  0.35463800  0.25386700  0.90159700  1
  Be  Be1  1  0.64536200  0.74613300  0.09840300  1
  Be  Be2  1  0.14536200  0.25386700  0.40159700  1
  Be  Be3  1  0.85463800  0.74613300  0.59840300  1
  Co  Co4  1  0.50000000  0.00000000  0.50000000  1
  Co  Co5  1  0.00000000  0.00000000  0.00000000  1
  H  H6  1  0.35792100  0.33752700  0.46421000  1
  H  H7  1  0.85792100  0.66247300  0.03579000  1
  H  H8  1  0.64207900  0.66247300  0.53579000  1
  H  H9  1  0.14207900  0.33752700  0.96421000  1
  H  H10  1  0.43567300  0.33507200  0.60008100  1
  H  H11  1  0.93567300  0.66492800  0.89991900  1
  H  H12  1  0.56432700  0.66492800  0.39991900  1
  H  H13  1  0.06432700  0.33507200  0.10008100  1
  H  H14  1  0.68388200  0.01376900  0.64232100  1
  H  H15  1  0.18388200  0.98623100  0.85767900  1
  H  H16  1  0.31611800  0.98623100  0.35767900  1
  H  H17  1  0.81611800  0.01376900  0.14232100  1
  H  H18  1  0.59831900  0.93442100  0.77029400  1
  H  H19  1  0.09831900  0.06557900  0.72970600  1
  H  H20  1  0.40168100  0.06557900  0.22970600  1
  H  H21  1  0.90168100  0.93442100  0.27029400  1
  H  H22  1  0.62987400  0.10623500  0.25342600  1
  H  H23  1  0.12987400  0.89376500  0.24657400  1
  H  H24  1  0.37012600  0.89376500  0.74657400  1
  H  H25  1  0.87012600  0.10623500  0.75342600  1
  H  H26  1  0.59159700  0.33414100  0.28452800  1
  H  H27  1  0.09159700  0.66585900  0.21547200  1
  H  H28  1  0.40840300  0.66585900  0.71547200  1
  H  H29  1  0.90840300  0.33414100  0.78452800  1
  H  H30  1  0.93268300  0.35198100  0.33015900  1
  H  H31  1  0.43268300  0.64801900  0.16984100  1
  H  H32  1  0.06731700  0.64801900  0.66984100  1
  H  H33  1  0.56731700  0.35198100  0.83015900  1
  H  H34  1  0.86228100  0.50572300  0.41625400  1
  H  H35  1  0.36228100  0.49427700  0.08374600  1
  H  H36  1  0.13771900  0.49427700  0.58374600  1
  H  H37  1  0.63771900  0.50572300  0.91625400  1
  H  H38  1  0.80402500  0.41098000  0.28405800  1
  H  H39  1  0.30402500  0.58902000  0.21594200  1
  H  H40  1  0.19597500  0.58902000  0.71594200  1
  H  H41  1  0.69597500  0.41098000  0.78405800  1
  H  H42  1  0.83670400  0.22509300  0.45315900  1
  H  H43  1  0.33670400  0.77490700  0.04684100  1
  H  H44  1  0.66329600  0.22509300  0.95315900  1
  H  H45  1  0.16329600  0.77490700  0.54684100  1
  N  N46  1  0.14214100  0.62899600  0.62853900  1
  N  N47  1  0.35785900  0.62899600  0.12853900  1
  N  N48  1  0.64214100  0.37100400  0.87146100  1
  N  N49  1  0.85785900  0.37100400  0.37146100  1
  O  O50  1  0.60883000  0.03167400  0.66629400  1
  O  O51  1  0.10883000  0.96832600  0.83370600  1
  O  O52  1  0.39117000  0.96832600  0.33370600  1
  O  O53  1  0.89117000  0.03167400  0.16629400  1
  O  O54  1  0.61145900  0.17567500  0.33277600  1
  O  O55  1  0.11145900  0.82432500  0.16722400  1
  O  O56  1  0.38854100  0.82432500  0.66722400  1
  O  O57  1  0.88854100  0.17567500  0.83277600  1
  O  O58  1  0.43048400  0.29796200  0.50440200  1
  O  O59  1  0.06951600  0.29796200  0.00440200  1
  O  O60  1  0.93048400  0.70203800  0.99559800  1
  O  O61  1  0.56951600  0.70203800  0.49559800  1
  F  F62  1  0.06509500  0.37410700  0.27363000  1
  F  F63  1  0.56509500  0.62589300  0.22637000  1
  F  F64  1  0.43490500  0.37410700  0.77363000  1
  F  F65  1  0.93490500  0.62589300  0.72637000  1
  F  F66  1  0.59197200  0.77024700  0.94473900  1
  F  F67  1  0.09197200  0.22975300  0.55526100  1
  F  F68  1  0.40802800  0.22975300  0.05526100  1
  F  F69  1  0.90802800  0.77024700  0.44473900  1
  F  F70  1  0.74340000  0.58602900  0.11403500  1
  F  F71  1  0.24340000  0.41397100  0.38596500  1
  F  F72  1  0.25660000  0.41397100  0.88596500  1
  F  F73  1  0.75660000  0.58602900  0.61403500  1
  F  F74  1  0.32023100  0.01778500  0.88448900  1
  F  F75  1  0.67976900  0.98221500  0.11551100  1
  F  F76  1  0.17976900  0.01778500  0.38448900  1
  F  F77  1  0.82023100  0.98221500  0.61551100  1
