# generated using pymatgen
data_CoH4(BrO)2
_symmetry_space_group_name_H-M   'P 1'
_cell_length_a   3.81121302
_cell_length_b   5.91791171
_cell_length_c   5.91791171
_cell_angle_alpha   95.30576068
_cell_angle_beta   97.57344448
_cell_angle_gamma   97.57344450
_symmetry_Int_Tables_number   1
_chemical_formula_structural   CoH4(BrO)2
_chemical_formula_sum   'Co1 H4 Br2 O2'
_cell_volume   130.33455473
_cell_formula_units_Z   1
loop_
 _symmetry_equiv_pos_site_id
 _symmetry_equiv_pos_as_xyz
  1  'x, y, z'
loop_
 _atom_site_type_symbol
 _atom_site_label
 _atom_site_symmetry_multiplicity
 _atom_site_fract_x
 _atom_site_fract_y
 _atom_site_fract_z
 _atom_site_occupancy
  H  H0  1  0.85562058  0.21093662  0.61440467  1
  H  H1  1  0.14437899  0.38559587  0.78906202  1
  H  H2  1  0.85561987  0.61440409  0.21093765  1
  H  H3  1  0.14438092  0.78906336  0.38559520  1
  O  O4  1  0.99999898  0.76792592  0.23207409  1
  O  O5  1  0.99999988  0.23207404  0.76792558  1
  Co  Co6  1  0.00000000  0.00000000  0.00000000  1
  Br  Br7  1  0.40874095  0.76277540  0.76277414  1
  Br  Br8  1  0.59125791  0.23722455  0.23722552  1
