# generated using pymatgen
data_ZrSbPd
_symmetry_space_group_name_H-M   'P 1'
_cell_length_a   4.34686900
_cell_length_b   6.88172000
_cell_length_c   8.04462500
_cell_angle_alpha   90.00000000
_cell_angle_beta   90.00000000
_cell_angle_gamma   90.00000000
_symmetry_Int_Tables_number   1
_chemical_formula_structural   ZrSbPd
_chemical_formula_sum   'Zr4 Sb4 Pd4'
_cell_volume   240.64639204
_cell_formula_units_Z   4
loop_
 _symmetry_equiv_pos_site_id
 _symmetry_equiv_pos_as_xyz
  1  'x, y, z'
loop_
 _atom_site_type_symbol
 _atom_site_label
 _atom_site_symmetry_multiplicity
 _atom_site_fract_x
 _atom_site_fract_y
 _atom_site_fract_z
 _atom_site_occupancy
  Zr  Zr0  1  0.75000000  0.48085500  0.69391900  1
  Zr  Zr1  1  0.25000000  0.51914500  0.30608100  1
  Zr  Zr2  1  0.75000000  0.98085500  0.80608100  1
  Zr  Zr3  1  0.25000000  0.01914500  0.19391900  1
  Sb  Sb4  1  0.75000000  0.73399400  0.10816300  1
  Sb  Sb5  1  0.25000000  0.26600600  0.89183700  1
  Sb  Sb6  1  0.75000000  0.23399400  0.39183700  1
  Sb  Sb7  1  0.25000000  0.76600600  0.60816300  1
  Pd  Pd8  1  0.75000000  0.33703000  0.07236100  1
  Pd  Pd9  1  0.25000000  0.66297000  0.92763900  1
  Pd  Pd10  1  0.75000000  0.83703000  0.42763900  1
  Pd  Pd11  1  0.25000000  0.16297000  0.57236100  1
