# generated using pymatgen
data_TaTe4I
_symmetry_space_group_name_H-M   'P 1'
_cell_length_a   6.75313584
_cell_length_b   8.36081282
_cell_length_c   9.21777555
_cell_angle_alpha   115.99764954
_cell_angle_beta   101.41702715
_cell_angle_gamma   100.77898716
_symmetry_Int_Tables_number   1
_chemical_formula_structural   TaTe4I
_chemical_formula_sum   'Ta2 Te8 I2'
_cell_volume   435.82873124
_cell_formula_units_Z   2
loop_
 _symmetry_equiv_pos_site_id
 _symmetry_equiv_pos_as_xyz
  1  'x, y, z'
loop_
 _atom_site_type_symbol
 _atom_site_label
 _atom_site_symmetry_multiplicity
 _atom_site_fract_x
 _atom_site_fract_y
 _atom_site_fract_z
 _atom_site_occupancy
  Ta  Ta0  1  0.75022068  0.99969251  0.00030769  1
  Ta  Ta1  1  0.24977932  0.00030749  0.99969231  1
  Te  Te2  1  0.12233109  0.32247215  0.17787582  1
  Te  Te3  1  0.02283124  0.87959577  0.18586590  1
  Te  Te4  1  0.38570199  0.84968941  0.70461606  1
  Te  Te5  1  0.61429801  0.15031059  0.29538394  1
  Te  Te6  1  0.87766891  0.67752785  0.82212418  1
  Te  Te7  1  0.53959831  0.24260952  0.93641916  1
  Te  Te8  1  0.46040169  0.75739048  0.06358084  1
  Te  Te9  1  0.97716876  0.12040423  0.81413410  1
  I  I10  1  0.24563512  0.40297310  0.56464986  1
  I  I11  1  0.75436488  0.59702690  0.43535014  1
