# generated using pymatgen
data_Al3Te3I
_symmetry_space_group_name_H-M   'P 1'
_cell_length_a   4.15318500
_cell_length_b   11.67025200
_cell_length_c   21.30771300
_cell_angle_alpha   90.00000000
_cell_angle_beta   90.00000000
_cell_angle_gamma   90.00000000
_symmetry_Int_Tables_number   1
_chemical_formula_structural   Al3Te3I
_chemical_formula_sum   'Al12 Te12 I4'
_cell_volume   1032.75748047
_cell_formula_units_Z   4
loop_
 _symmetry_equiv_pos_site_id
 _symmetry_equiv_pos_as_xyz
  1  'x, y, z'
loop_
 _atom_site_type_symbol
 _atom_site_label
 _atom_site_symmetry_multiplicity
 _atom_site_fract_x
 _atom_site_fract_y
 _atom_site_fract_z
 _atom_site_occupancy
  Al  Al0  1  0.75000000  0.32354700  0.87165600  1
  Al  Al1  1  0.25000000  0.67645300  0.12834400  1
  Al  Al2  1  0.75000000  0.82354700  0.62834400  1
  Al  Al3  1  0.25000000  0.17645300  0.37165600  1
  Al  Al4  1  0.25000000  0.16392300  0.00534600  1
  Al  Al5  1  0.75000000  0.83607700  0.99465400  1
  Al  Al6  1  0.25000000  0.66392300  0.49465400  1
  Al  Al7  1  0.75000000  0.33607700  0.50534600  1
  Al  Al8  1  0.25000000  0.04400700  0.90501800  1
  Al  Al9  1  0.75000000  0.95599300  0.09498200  1
  Al  Al10  1  0.25000000  0.54400700  0.59498200  1
  Al  Al11  1  0.75000000  0.45599300  0.40501800  1
  Te  Te12  1  0.25000000  0.21372700  0.81858800  1
  Te  Te13  1  0.75000000  0.78627300  0.18141200  1
  Te  Te14  1  0.25000000  0.71372700  0.68141200  1
  Te  Te15  1  0.75000000  0.28627300  0.31858800  1
  Te  Te16  1  0.75000000  0.90642400  0.87454600  1
  Te  Te17  1  0.25000000  0.09357600  0.12545400  1
  Te  Te18  1  0.75000000  0.40642400  0.62545400  1
  Te  Te19  1  0.25000000  0.59357600  0.37454600  1
  Te  Te20  1  0.75000000  0.31360900  0.99703900  1
  Te  Te21  1  0.25000000  0.68639100  0.00296100  1
  Te  Te22  1  0.75000000  0.81360900  0.50296100  1
  Te  Te23  1  0.25000000  0.18639100  0.49703900  1
  I  I24  1  0.75000000  0.52984400  0.83551300  1
  I  I25  1  0.25000000  0.47015600  0.16448700  1
  I  I26  1  0.75000000  0.02984400  0.66448700  1
  I  I27  1  0.25000000  0.97015600  0.33551300  1
