# generated using pymatgen
data_Na(LiSi2)3
_symmetry_space_group_name_H-M   'P 1'
_cell_length_a   3.79969200
_cell_length_b   10.32010500
_cell_length_c   18.00586400
_cell_angle_alpha   90.00000000
_cell_angle_beta   90.00000000
_cell_angle_gamma   90.00000000
_symmetry_Int_Tables_number   1
_chemical_formula_structural   Na(LiSi2)3
_chemical_formula_sum   'Na4 Li12 Si24'
_cell_volume   706.06791366
_cell_formula_units_Z   4
loop_
 _symmetry_equiv_pos_site_id
 _symmetry_equiv_pos_as_xyz
  1  'x, y, z'
loop_
 _atom_site_type_symbol
 _atom_site_label
 _atom_site_symmetry_multiplicity
 _atom_site_fract_x
 _atom_site_fract_y
 _atom_site_fract_z
 _atom_site_occupancy
  Na  Na0  1  0.75000000  0.24965600  0.42451500  1
  Na  Na1  1  0.25000000  0.75034400  0.57548500  1
  Na  Na2  1  0.25000000  0.74965600  0.07548500  1
  Na  Na3  1  0.75000000  0.25034400  0.92451500  1
  Li  Li4  1  0.25000000  0.01548200  0.93227000  1
  Li  Li5  1  0.75000000  0.98451800  0.06773000  1
  Li  Li6  1  0.75000000  0.51548200  0.56773000  1
  Li  Li7  1  0.25000000  0.48451800  0.43227000  1
  Li  Li8  1  0.25000000  0.40880300  0.02790600  1
  Li  Li9  1  0.75000000  0.59119700  0.97209400  1
  Li  Li10  1  0.75000000  0.90880300  0.47209400  1
  Li  Li11  1  0.25000000  0.09119700  0.52790600  1
  Li  Li12  1  0.75000000  0.93901500  0.81261600  1
  Li  Li13  1  0.25000000  0.06098500  0.18738400  1
  Li  Li14  1  0.25000000  0.43901500  0.68738400  1
  Li  Li15  1  0.75000000  0.56098500  0.31261600  1
  Si  Si16  1  0.25000000  0.52255800  0.19654500  1
  Si  Si17  1  0.75000000  0.47744200  0.80345500  1
  Si  Si18  1  0.75000000  0.02255800  0.30345500  1
  Si  Si19  1  0.25000000  0.97744200  0.69654500  1
  Si  Si20  1  0.25000000  0.16578900  0.05464000  1
  Si  Si21  1  0.75000000  0.83421100  0.94536000  1
  Si  Si22  1  0.75000000  0.66578900  0.44536000  1
  Si  Si23  1  0.25000000  0.33421100  0.55464000  1
  Si  Si24  1  0.25000000  0.35853800  0.29518200  1
  Si  Si25  1  0.75000000  0.64146200  0.70481800  1
  Si  Si26  1  0.75000000  0.85853800  0.20481800  1
  Si  Si27  1  0.25000000  0.14146200  0.79518200  1
  Si  Si28  1  0.75000000  0.49608800  0.11794900  1
  Si  Si29  1  0.25000000  0.50391200  0.88205100  1
  Si  Si30  1  0.25000000  0.99608800  0.38205100  1
  Si  Si31  1  0.75000000  0.00391200  0.61794900  1
  Si  Si32  1  0.75000000  0.25821700  0.11732300  1
  Si  Si33  1  0.25000000  0.74178300  0.88267700  1
  Si  Si34  1  0.25000000  0.75821700  0.38267700  1
  Si  Si35  1  0.75000000  0.24178300  0.61732300  1
  Si  Si36  1  0.25000000  0.74108200  0.24907100  1
  Si  Si37  1  0.75000000  0.25891800  0.75092900  1
  Si  Si38  1  0.75000000  0.24108200  0.25092900  1
  Si  Si39  1  0.25000000  0.75891800  0.74907100  1
