# generated using pymatgen
data_U(Mo3S4)2
_symmetry_space_group_name_H-M   'P 1'
_cell_length_a   6.47471541
_cell_length_b   6.47471541
_cell_length_c   6.47471495
_cell_angle_alpha   88.82868135
_cell_angle_beta   88.82868135
_cell_angle_gamma   88.82868820
_symmetry_Int_Tables_number   1
_chemical_formula_structural   U(Mo3S4)2
_chemical_formula_sum   'U1 Mo6 S8'
_cell_volume   271.26474023
_cell_formula_units_Z   1
loop_
 _symmetry_equiv_pos_site_id
 _symmetry_equiv_pos_as_xyz
  1  'x, y, z'
loop_
 _atom_site_type_symbol
 _atom_site_label
 _atom_site_symmetry_multiplicity
 _atom_site_fract_x
 _atom_site_fract_y
 _atom_site_fract_z
 _atom_site_occupancy
  U  U0  1  0.00000000  0.00000000  0.00000000  1
  Mo  Mo1  1  0.77814700  0.43794400  0.57900900  1
  Mo  Mo2  1  0.57900900  0.77814700  0.43794400  1
  Mo  Mo3  1  0.43794400  0.57900900  0.77814700  1
  Mo  Mo4  1  0.22185300  0.56205600  0.42099100  1
  Mo  Mo5  1  0.42099100  0.22185300  0.56205600  1
  Mo  Mo6  1  0.56205600  0.42099100  0.22185300  1
  S  S7  1  0.76044600  0.76044600  0.76044600  1
  S  S8  1  0.23955400  0.23955400  0.23955400  1
  S  S9  1  0.63322700  0.24254800  0.87230000  1
  S  S10  1  0.87230000  0.63322700  0.24254800  1
  S  S11  1  0.24254800  0.87230000  0.63322700  1
  S  S12  1  0.36677300  0.75745200  0.12770000  1
  S  S13  1  0.12770000  0.36677300  0.75745200  1
  S  S14  1  0.75745200  0.12770000  0.36677300  1
