# generated using pymatgen
data_CsI2Br
_symmetry_space_group_name_H-M   'P 1'
_cell_length_a   6.97211000
_cell_length_b   10.08783300
_cell_length_c   11.04549800
_cell_angle_alpha   90.00000000
_cell_angle_beta   90.00000000
_cell_angle_gamma   90.00000000
_symmetry_Int_Tables_number   1
_chemical_formula_structural   CsI2Br
_chemical_formula_sum   'Cs4 I8 Br4'
_cell_volume   776.86832745
_cell_formula_units_Z   4
loop_
 _symmetry_equiv_pos_site_id
 _symmetry_equiv_pos_as_xyz
  1  'x, y, z'
loop_
 _atom_site_type_symbol
 _atom_site_label
 _atom_site_symmetry_multiplicity
 _atom_site_fract_x
 _atom_site_fract_y
 _atom_site_fract_z
 _atom_site_occupancy
  Cs  Cs0  1  0.25000000  0.04951600  0.66722800  1
  Cs  Cs1  1  0.75000000  0.95048400  0.33277200  1
  Cs  Cs2  1  0.75000000  0.54951600  0.83277200  1
  Cs  Cs3  1  0.25000000  0.45048400  0.16722800  1
  I  I4  1  0.25000000  0.55253700  0.63228900  1
  I  I5  1  0.75000000  0.44746300  0.36771100  1
  I  I6  1  0.75000000  0.05253700  0.86771100  1
  I  I7  1  0.25000000  0.94746300  0.13228900  1
  I  I8  1  0.25000000  0.73106500  0.43074800  1
  I  I9  1  0.75000000  0.26893500  0.56925200  1
  I  I10  1  0.75000000  0.23106500  0.06925200  1
  I  I11  1  0.25000000  0.76893500  0.93074800  1
  Br  Br12  1  0.25000000  0.12677600  0.33265000  1
  Br  Br13  1  0.75000000  0.87322400  0.66735000  1
  Br  Br14  1  0.75000000  0.62677600  0.16735000  1
  Br  Br15  1  0.25000000  0.37322400  0.83265000  1
