# generated using pymatgen
data_CsSn2Br5
_symmetry_space_group_name_H-M   'P 1'
_cell_length_a   10.10079438
_cell_length_b   10.10079438
_cell_length_c   10.10079438
_cell_angle_alpha   129.49381771
_cell_angle_beta   129.49381771
_cell_angle_gamma   74.21728726
_symmetry_Int_Tables_number   1
_chemical_formula_structural   CsSn2Br5
_chemical_formula_sum   'Cs2 Sn4 Br10'
_cell_volume   598.31628319
_cell_formula_units_Z   2
loop_
 _symmetry_equiv_pos_site_id
 _symmetry_equiv_pos_as_xyz
  1  'x, y, z'
loop_
 _atom_site_type_symbol
 _atom_site_label
 _atom_site_symmetry_multiplicity
 _atom_site_fract_x
 _atom_site_fract_y
 _atom_site_fract_z
 _atom_site_occupancy
  Cs  Cs0  1  0.25000000  0.25000000  0.00000000  1
  Cs  Cs1  1  0.75000000  0.75000000  0.00000000  1
  Sn  Sn2  1  0.18490300  0.68490300  0.86980600  1
  Sn  Sn3  1  0.68490300  0.81509700  0.50000000  1
  Sn  Sn4  1  0.31509700  0.18490300  0.50000000  1
  Sn  Sn5  1  0.81509700  0.31509700  0.13019400  1
  Br  Br6  1  0.46519600  0.96519600  0.18164400  1
  Br  Br7  1  0.21644800  0.71644800  0.18164400  1
  Br  Br8  1  0.53480400  0.03480400  0.81835600  1
  Br  Br9  1  0.03480400  0.21644800  0.50000000  1
  Br  Br10  1  0.71644800  0.53480400  0.50000000  1
  Br  Br11  1  0.96519600  0.78355200  0.50000000  1
  Br  Br12  1  0.50000000  0.50000000  0.00000000  1
  Br  Br13  1  0.00000000  0.00000000  0.00000000  1
  Br  Br14  1  0.78355200  0.28355200  0.81835600  1
  Br  Br15  1  0.28355200  0.46519600  0.50000000  1
