# generated using pymatgen
data_Sr3V2O7
_symmetry_space_group_name_H-M   'P 1'
_cell_length_a   3.97754382
_cell_length_b   3.97754440
_cell_length_c   10.34817519
_cell_angle_alpha   101.08036891
_cell_angle_beta   101.08037297
_cell_angle_gamma   89.99999781
_symmetry_Int_Tables_number   1
_chemical_formula_structural   Sr3V2O7
_chemical_formula_sum   'Sr3 V2 O7'
_cell_volume   157.55405452
_cell_formula_units_Z   1
loop_
 _symmetry_equiv_pos_site_id
 _symmetry_equiv_pos_as_xyz
  1  'x, y, z'
loop_
 _atom_site_type_symbol
 _atom_site_label
 _atom_site_symmetry_multiplicity
 _atom_site_fract_x
 _atom_site_fract_y
 _atom_site_fract_z
 _atom_site_occupancy
  Sr  Sr0  1  0.68046889  0.68046989  0.36093777  1
  Sr  Sr1  1  0.31953011  0.31953011  0.63906223  1
  Sr  Sr2  1  0.49999900  0.50000100  0.00000000  1
  V  V3  1  0.90219047  0.90219347  0.80438295  1
  V  V4  1  0.09780853  0.09780753  0.19561705  1
  O  O5  1  0.90429916  0.40430016  0.80859933  1
  O  O6  1  0.40430016  0.90429816  0.80859833  1
  O  O7  1  0.09569984  0.59569984  0.19140067  1
  O  O8  1  0.59570084  0.09570184  0.19140067  1
  O  O9  1  0.80732041  0.80732041  0.61464182  1
  O  O10  1  0.00000000  0.00000000  0.00000000  1
  O  O11  1  0.19267859  0.19267959  0.38535718  1
