# generated using pymatgen
data_Nd3PO7
_symmetry_space_group_name_H-M   'P 1'
_cell_length_a   9.35939118
_cell_length_b   9.35939118
_cell_length_c   12.40000055
_cell_angle_alpha   77.21771037
_cell_angle_beta   77.21771037
_cell_angle_gamma   91.07732307
_symmetry_Int_Tables_number   1
_chemical_formula_structural   Nd3PO7
_chemical_formula_sum   'Nd18 P6 O42'
_cell_volume   1030.42242215
_cell_formula_units_Z   6
loop_
 _symmetry_equiv_pos_site_id
 _symmetry_equiv_pos_as_xyz
  1  'x, y, z'
loop_
 _atom_site_type_symbol
 _atom_site_label
 _atom_site_symmetry_multiplicity
 _atom_site_fract_x
 _atom_site_fract_y
 _atom_site_fract_z
 _atom_site_occupancy
  Nd  Nd0  1  0.83222700  0.52266800  0.27142100  1
  Nd  Nd1  1  0.52266800  0.83222700  0.27142100  1
  Nd  Nd2  1  0.82031900  0.16599000  0.81147800  1
  Nd  Nd3  1  0.16599000  0.82031900  0.81147800  1
  Nd  Nd4  1  0.80954100  0.19045900  0.50000000  1
  Nd  Nd5  1  0.19046000  0.80954000  0.50000000  1
  Nd  Nd6  1  0.47618500  0.16173800  0.38764600  1
  Nd  Nd7  1  0.16173800  0.47618500  0.38764600  1
  Nd  Nd8  1  0.52381500  0.83826200  0.61235400  1
  Nd  Nd9  1  0.83826200  0.52381500  0.61235400  1
  Nd  Nd10  1  0.47722000  0.82322600  0.94569000  1
  Nd  Nd11  1  0.82322600  0.47722000  0.94569000  1
  Nd  Nd12  1  0.52278000  0.17677400  0.05431000  1
  Nd  Nd13  1  0.17677400  0.52278000  0.05431000  1
  Nd  Nd14  1  0.83401000  0.17968100  0.18852200  1
  Nd  Nd15  1  0.17968100  0.83401000  0.18852200  1
  Nd  Nd16  1  0.47733200  0.16777300  0.72857900  1
  Nd  Nd17  1  0.16777300  0.47733200  0.72857900  1
  P  P18  1  0.16360500  0.16360500  0.61153300  1
  P  P19  1  0.83639500  0.83639500  0.38846700  1
  P  P20  1  0.83196700  0.83196700  0.76633800  1
  P  P21  1  0.50371400  0.50371400  0.18033000  1
  P  P22  1  0.16803300  0.16803300  0.23366200  1
  P  P23  1  0.49628600  0.49628600  0.81967000  1
  O  O24  1  0.79688100  0.79688100  0.28138400  1
  O  O25  1  0.61141400  0.61141400  0.21092700  1
  O  O26  1  0.92736800  0.92736800  0.81906200  1
  O  O27  1  0.74342700  0.93622400  0.69428700  1
  O  O28  1  0.93622400  0.74342700  0.69428700  1
  O  O29  1  0.80808800  0.99896000  0.38746800  1
  O  O30  1  0.99896000  0.80808800  0.38746800  1
  O  O31  1  0.26671600  0.26671600  0.50537100  1
  O  O32  1  0.19191200  0.00104000  0.61253200  1
  O  O33  1  0.00104000  0.19191200  0.61253200  1
  O  O34  1  0.25657300  0.06377600  0.30571300  1
  O  O35  1  0.06377600  0.25657300  0.30571300  1
  O  O36  1  0.71582900  0.28652600  0.33625300  1
  O  O37  1  0.28652600  0.71582900  0.33625300  1
  O  O38  1  0.40663800  0.40663800  0.29149200  1
  O  O39  1  0.28417100  0.71347400  0.66374700  1
  O  O40  1  0.71347400  0.28417100  0.66374700  1
  O  O41  1  0.59336200  0.59336200  0.70850900  1
  O  O42  1  0.73328400  0.73328400  0.49462900  1
  O  O43  1  0.44195500  0.89522000  0.44408500  1
  O  O44  1  0.89522000  0.44195500  0.44408500  1
  O  O45  1  0.42630700  0.92034500  0.11110100  1
  O  O46  1  0.92034500  0.42630700  0.11110100  1
  O  O47  1  0.72598700  0.72598700  0.87112500  1
  O  O48  1  0.10478000  0.55804500  0.55591500  1
  O  O49  1  0.55804500  0.10478000  0.55591500  1
  O  O50  1  0.91696400  0.40515400  0.77737200  1
  O  O51  1  0.40515400  0.91696400  0.77737200  1
  O  O52  1  0.07965500  0.57369300  0.88889900  1
  O  O53  1  0.57369300  0.07965500  0.88889900  1
  O  O54  1  0.38858600  0.38858600  0.78907300  1
  O  O55  1  0.20311900  0.20311900  0.71861600  1
  O  O56  1  0.07263200  0.07263200  0.18093800  1
  O  O57  1  0.08303600  0.59484600  0.22262800  1
  O  O58  1  0.59484600  0.08303600  0.22262800  1
  O  O59  1  0.21378800  0.78621200  0.00000000  1
  O  O60  1  0.78621200  0.21378800  0.00000000  1
  O  O61  1  0.27401300  0.27401300  0.12887500  1
  O  O62  1  0.40006500  0.59187800  0.88820200  1
  O  O63  1  0.59187800  0.40006500  0.88820200  1
  O  O64  1  0.40812200  0.59993500  0.11179800  1
  O  O65  1  0.59993500  0.40812200  0.11179800  1
