# generated using pymatgen
data_CeGeAu
_symmetry_space_group_name_H-M   'P 1'
_cell_length_a   4.52534800
_cell_length_b   7.37550700
_cell_length_c   7.94651800
_cell_angle_alpha   90.00000000
_cell_angle_beta   90.00000000
_cell_angle_gamma   90.00000000
_symmetry_Int_Tables_number   1
_chemical_formula_structural   CeGeAu
_chemical_formula_sum   'Ce4 Ge4 Au4'
_cell_volume   265.22883222
_cell_formula_units_Z   4
loop_
 _symmetry_equiv_pos_site_id
 _symmetry_equiv_pos_as_xyz
  1  'x, y, z'
loop_
 _atom_site_type_symbol
 _atom_site_label
 _atom_site_symmetry_multiplicity
 _atom_site_fract_x
 _atom_site_fract_y
 _atom_site_fract_z
 _atom_site_occupancy
  Ce  Ce0  1  0.75000000  0.50286000  0.79485100  1
  Ce  Ce1  1  0.25000000  0.99714000  0.29485100  1
  Ce  Ce2  1  0.75000000  0.00286000  0.70514900  1
  Ce  Ce3  1  0.25000000  0.49714000  0.20514900  1
  Ge  Ge4  1  0.25000000  0.71528200  0.59640400  1
  Ge  Ge5  1  0.25000000  0.21528200  0.90359600  1
  Ge  Ge6  1  0.75000000  0.28471800  0.40359600  1
  Ge  Ge7  1  0.75000000  0.78471800  0.09640400  1
  Au  Au8  1  0.25000000  0.81036200  0.92255800  1
  Au  Au9  1  0.25000000  0.31036200  0.57744200  1
  Au  Au10  1  0.75000000  0.68963800  0.42255800  1
  Au  Au11  1  0.75000000  0.18963800  0.07744200  1
