# generated using pymatgen
data_Fe(PO3)3
_symmetry_space_group_name_H-M   'P 1'
_cell_length_a   8.53493800
_cell_length_b   8.59743000
_cell_length_c   8.68901900
_cell_angle_alpha   90.00000000
_cell_angle_beta   90.00000000
_cell_angle_gamma   90.00000000
_symmetry_Int_Tables_number   1
_chemical_formula_structural   Fe(PO3)3
_chemical_formula_sum   'Fe4 P12 O36'
_cell_volume   637.58745882
_cell_formula_units_Z   4
loop_
 _symmetry_equiv_pos_site_id
 _symmetry_equiv_pos_as_xyz
  1  'x, y, z'
loop_
 _atom_site_type_symbol
 _atom_site_label
 _atom_site_symmetry_multiplicity
 _atom_site_fract_x
 _atom_site_fract_y
 _atom_site_fract_z
 _atom_site_occupancy
  Fe  Fe0  1  0.86810800  0.64248100  0.35233700  1
  Fe  Fe1  1  0.63189200  0.35751900  0.85233700  1
  Fe  Fe2  1  0.36810800  0.85751900  0.64766300  1
  Fe  Fe3  1  0.13189200  0.14248100  0.14766300  1
  P  P4  1  0.68223600  0.98553200  0.81292100  1
  P  P5  1  0.70060400  0.30819200  0.44997000  1
  P  P6  1  0.79939600  0.69180800  0.94997000  1
  P  P7  1  0.81776400  0.01446800  0.31292100  1
  P  P8  1  0.03513700  0.67732700  0.69075800  1
  P  P9  1  0.18223600  0.51446800  0.18707900  1
  P  P10  1  0.20060400  0.19180800  0.55003000  1
  P  P11  1  0.29939600  0.80819200  0.05003000  1
  P  P12  1  0.96486300  0.17732700  0.80924200  1
  P  P13  1  0.46486300  0.32267300  0.19075800  1
  P  P14  1  0.53513700  0.82267300  0.30924200  1
  P  P15  1  0.31776400  0.48553200  0.68707900  1
  O  O16  1  0.63690100  0.68832200  0.35765500  1
  O  O17  1  0.95782900  0.71938700  0.85289800  1
  O  O18  1  0.89724400  0.87505400  0.38237600  1
  O  O19  1  0.91067600  0.62396500  0.58071900  1
  O  O20  1  0.04217100  0.21938700  0.64710200  1
  O  O21  1  0.10275600  0.37505400  0.11762400  1
  O  O22  1  0.08932400  0.12396500  0.91928100  1
  O  O23  1  0.09964700  0.59628200  0.31729800  1
  O  O24  1  0.13690100  0.81167800  0.64234500  1
  O  O25  1  0.14417000  0.53265500  0.74360800  1
  O  O26  1  0.15306100  0.16084400  0.38729400  1
  O  O27  1  0.19214200  0.91780600  0.13437700  1
  O  O28  1  0.22206000  0.63669400  0.05267500  1
  O  O29  1  0.27794000  0.36330600  0.55267500  1
  O  O30  1  0.30785800  0.08219400  0.63437700  1
  O  O31  1  0.34693900  0.83915600  0.88729400  1
  O  O32  1  0.35583000  0.46734500  0.24360800  1
  O  O33  1  0.36309900  0.18832200  0.14234500  1
  O  O34  1  0.40035300  0.40371800  0.81729800  1
  O  O35  1  0.41067600  0.87603500  0.41928100  1
  O  O36  1  0.39724400  0.62494600  0.61762400  1
  O  O37  1  0.45782900  0.78061300  0.14710200  1
  O  O38  1  0.54217100  0.28061300  0.35289800  1
  O  O39  1  0.86309900  0.31167800  0.85765500  1
  O  O40  1  0.58932400  0.37603500  0.08071900  1
  O  O41  1  0.59964700  0.90371800  0.68270200  1
  O  O42  1  0.60275600  0.12494600  0.88237600  1
  O  O43  1  0.64417000  0.96734500  0.25639200  1
  O  O44  1  0.65306100  0.33915600  0.61270600  1
  O  O45  1  0.69214200  0.58219400  0.86562300  1
  O  O46  1  0.72206000  0.86330600  0.94732500  1
  O  O47  1  0.77794000  0.13669400  0.44732500  1
  O  O48  1  0.80785800  0.41780600  0.36562300  1
  O  O49  1  0.84693900  0.66084400  0.11270600  1
  O  O50  1  0.85583000  0.03265500  0.75639200  1
  O  O51  1  0.90035300  0.09628200  0.18270200  1
