# generated using pymatgen
data_ScCd7
_symmetry_space_group_name_H-M   'P 1'
_cell_length_a   6.31296316
_cell_length_b   6.31296316
_cell_length_c   9.43415800
_cell_angle_alpha   90.00000000
_cell_angle_beta   90.00000000
_cell_angle_gamma   107.69718498
_symmetry_Int_Tables_number   1
_chemical_formula_structural   ScCd7
_chemical_formula_sum   'Sc2 Cd14'
_cell_volume   358.19133018
_cell_formula_units_Z   2
loop_
 _symmetry_equiv_pos_site_id
 _symmetry_equiv_pos_as_xyz
  1  'x, y, z'
loop_
 _atom_site_type_symbol
 _atom_site_label
 _atom_site_symmetry_multiplicity
 _atom_site_fract_x
 _atom_site_fract_y
 _atom_site_fract_z
 _atom_site_occupancy
  Sc  Sc0  1  0.52152400  0.47847600  0.25000000  1
  Sc  Sc1  1  0.47847600  0.52152400  0.75000000  1
  Cd  Cd2  1  0.59673500  0.99758100  0.25000000  1
  Cd  Cd3  1  0.40326500  0.00241900  0.75000000  1
  Cd  Cd4  1  0.99758100  0.59673500  0.75000000  1
  Cd  Cd5  1  0.00241900  0.40326500  0.25000000  1
  Cd  Cd6  1  0.29089800  0.70910200  0.48253000  1
  Cd  Cd7  1  0.70910200  0.29089800  0.98253000  1
  Cd  Cd8  1  0.70910200  0.29089800  0.51747000  1
  Cd  Cd9  1  0.29089800  0.70910200  0.01747000  1
  Cd  Cd10  1  0.21184800  0.21184800  0.50000000  1
  Cd  Cd11  1  0.78815200  0.78815200  0.00000000  1
  Cd  Cd12  1  0.78815200  0.78815200  0.50000000  1
  Cd  Cd13  1  0.21184800  0.21184800  0.00000000  1
  Cd  Cd14  1  0.08477300  0.91522700  0.25000000  1
  Cd  Cd15  1  0.91522700  0.08477300  0.75000000  1
