# generated using pymatgen
data_KCd13
_symmetry_space_group_name_H-M   'P 1'
_cell_length_a   9.97716355
_cell_length_b   9.97716355
_cell_length_c   9.97716355
_cell_angle_alpha   60.00000000
_cell_angle_beta   60.00000000
_cell_angle_gamma   60.00000000
_symmetry_Int_Tables_number   1
_chemical_formula_structural   KCd13
_chemical_formula_sum   'K2 Cd26'
_cell_volume   702.27349197
_cell_formula_units_Z   2
loop_
 _symmetry_equiv_pos_site_id
 _symmetry_equiv_pos_as_xyz
  1  'x, y, z'
loop_
 _atom_site_type_symbol
 _atom_site_label
 _atom_site_symmetry_multiplicity
 _atom_site_fract_x
 _atom_site_fract_y
 _atom_site_fract_z
 _atom_site_occupancy
  K  K0  1  0.25000000  0.25000000  0.25000000  1
  K  K1  1  0.75000000  0.75000000  0.75000000  1
  Cd  Cd2  1  0.44094300  0.19853700  0.80146300  1
  Cd  Cd3  1  0.94094300  0.69853700  0.05905700  1
  Cd  Cd4  1  0.69853700  0.94094300  0.30146300  1
  Cd  Cd5  1  0.30146300  0.69853700  0.94094300  1
  Cd  Cd6  1  0.94094300  0.05905700  0.30146300  1
  Cd  Cd7  1  0.69853700  0.05905700  0.94094300  1
  Cd  Cd8  1  0.30146300  0.94094300  0.05905700  1
  Cd  Cd9  1  0.80146300  0.44094300  0.19853700  1
  Cd  Cd10  1  0.19853700  0.80146300  0.44094300  1
  Cd  Cd11  1  0.44094300  0.55905700  0.19853700  1
  Cd  Cd12  1  0.44094300  0.80146300  0.55905700  1
  Cd  Cd13  1  0.19853700  0.55905700  0.80146300  1
  Cd  Cd14  1  0.55905700  0.44094300  0.80146300  1
  Cd  Cd15  1  0.55905700  0.19853700  0.44094300  1
  Cd  Cd16  1  0.80146300  0.19853700  0.55905700  1
  Cd  Cd17  1  0.05905700  0.94094300  0.69853700  1
  Cd  Cd18  1  0.05905700  0.30146300  0.94094300  1
  Cd  Cd19  1  0.94094300  0.30146300  0.69853700  1
  Cd  Cd20  1  0.05905700  0.69853700  0.30146300  1
  Cd  Cd21  1  0.30146300  0.05905700  0.69853700  1
  Cd  Cd22  1  0.69853700  0.30146300  0.05905700  1
  Cd  Cd23  1  0.19853700  0.44094300  0.55905700  1
  Cd  Cd24  1  0.80146300  0.55905700  0.44094300  1
  Cd  Cd25  1  0.55905700  0.80146300  0.19853700  1
  Cd  Cd26  1  0.00000000  0.00000000  0.00000000  1
  Cd  Cd27  1  0.50000000  0.50000000  0.50000000  1
