# generated using pymatgen
data_Sr2TaCrO6
_symmetry_space_group_name_H-M   'P 1'
_cell_length_a   7.99349279
_cell_length_b   7.99349223
_cell_length_c   9.78998871
_cell_angle_alpha   114.09484180
_cell_angle_beta   114.09484501
_cell_angle_gamma   89.99999842
_symmetry_Int_Tables_number   1
_chemical_formula_structural   Sr2TaCrO6
_chemical_formula_sum   'Sr8 Ta4 Cr4 O24'
_cell_volume   510.75156060
_cell_formula_units_Z   4
loop_
 _symmetry_equiv_pos_site_id
 _symmetry_equiv_pos_as_xyz
  1  'x, y, z'
loop_
 _atom_site_type_symbol
 _atom_site_label
 _atom_site_symmetry_multiplicity
 _atom_site_fract_x
 _atom_site_fract_y
 _atom_site_fract_z
 _atom_site_occupancy
  Sr  Sr0  1  0.87500000  0.37500000  0.25000100  1
  Sr  Sr1  1  0.62500000  0.62500000  0.75000100  1
  Sr  Sr2  1  0.37500000  0.87500000  0.25000100  1
  Sr  Sr3  1  0.12500000  0.12500000  0.75000100  1
  Sr  Sr4  1  0.62500000  0.12500000  0.74999900  1
  Sr  Sr5  1  0.37500000  0.37500000  0.24999900  1
  Sr  Sr6  1  0.12500000  0.62500000  0.74999900  1
  Sr  Sr7  1  0.87500000  0.87500000  0.24999900  1
  Ta  Ta8  1  0.25000100  0.24999900  0.50000000  1
  Ta  Ta9  1  0.00000100  0.49999900  0.00000000  1
  Ta  Ta10  1  0.75000100  0.74999900  0.50000000  1
  Ta  Ta11  1  0.50000100  0.99999900  0.00000000  1
  Cr  Cr12  1  0.50000000  0.50000000  0.00000000  1
  Cr  Cr13  1  0.25000000  0.75000000  0.50000000  1
  Cr  Cr14  1  0.00000000  0.00000000  0.00000000  1
  Cr  Cr15  1  0.75000000  0.25000000  0.50000000  1
  O  O16  1  0.49906300  0.25000000  0.50000000  1
  O  O17  1  0.24906300  0.50000000  0.00000000  1
  O  O18  1  0.99906300  0.75000000  0.50000000  1
  O  O19  1  0.74906300  0.00000000  0.00000000  1
  O  O20  1  0.12546800  0.12546800  0.25093600  1
  O  O21  1  0.87546800  0.37546800  0.75093600  1
  O  O22  1  0.62546800  0.62546800  0.25093600  1
  O  O23  1  0.37546800  0.87546800  0.75093600  1
  O  O24  1  0.37453100  0.37453200  0.74906300  1
  O  O25  1  0.12453100  0.62453200  0.24906300  1
  O  O26  1  0.87453100  0.87453200  0.74906300  1
  O  O27  1  0.62453100  0.12453200  0.24906300  1
  O  O28  1  0.25000000  0.49906400  0.50000100  1
  O  O29  1  0.00000000  0.74906400  0.00000100  1
  O  O30  1  0.75000000  0.99906400  0.50000100  1
  O  O31  1  0.50000000  0.24906400  0.00000100  1
  O  O32  1  0.00093700  0.25000000  0.50000000  1
  O  O33  1  0.75093700  0.50000000  0.00000000  1
  O  O34  1  0.50093700  0.75000000  0.50000000  1
  O  O35  1  0.25093700  0.00000000  0.00000000  1
  O  O36  1  0.25000100  0.00093700  0.50000000  1
  O  O37  1  0.00000100  0.25093700  0.00000000  1
  O  O38  1  0.75000100  0.50093700  0.50000000  1
  O  O39  1  0.50000100  0.75093700  0.00000000  1
