# generated using pymatgen
data_Gd2B4O9
_symmetry_space_group_name_H-M   'P 1'
_cell_length_a   6.26296000
_cell_length_b   6.54632676
_cell_length_c   7.56489318
_cell_angle_alpha   102.05182141
_cell_angle_beta   96.96202646
_cell_angle_gamma   102.41425243
_symmetry_Int_Tables_number   1
_chemical_formula_structural   Gd2B4O9
_chemical_formula_sum   'Gd4 B8 O18'
_cell_volume   291.71394107
_cell_formula_units_Z   2
loop_
 _symmetry_equiv_pos_site_id
 _symmetry_equiv_pos_as_xyz
  1  'x, y, z'
loop_
 _atom_site_type_symbol
 _atom_site_label
 _atom_site_symmetry_multiplicity
 _atom_site_fract_x
 _atom_site_fract_y
 _atom_site_fract_z
 _atom_site_occupancy
  Gd  Gd0  1  0.45158300  0.90882100  0.71480400  1
  Gd  Gd1  1  0.54841700  0.09117900  0.28519600  1
  Gd  Gd2  1  0.11374700  0.32269900  0.64116900  1
  Gd  Gd3  1  0.88625300  0.67730100  0.35883100  1
  B  B4  1  0.99425100  0.14846500  0.18752200  1
  B  B5  1  0.00574900  0.85153500  0.81247800  1
  B  B6  1  0.37242800  0.64281700  0.34661000  1
  B  B7  1  0.62757200  0.35718300  0.65339000  1
  B  B8  1  0.27134800  0.66561900  0.01818900  1
  B  B9  1  0.72865200  0.33438100  0.98181100  1
  B  B10  1  0.33830100  0.32203900  0.07489300  1
  B  B11  1  0.66169900  0.67796100  0.92510700  1
  O  O12  1  0.57512200  0.81435600  0.44153700  1
  O  O13  1  0.23891500  0.73512900  0.20850300  1
  O  O14  1  0.77970900  0.40482400  0.52485800  1
  O  O15  1  0.22029100  0.59517600  0.47514200  1
  O  O16  1  0.76108500  0.26487100  0.79149700  1
  O  O17  1  0.85902500  0.28029100  0.13955500  1
  O  O18  1  0.54315700  0.53637200  0.74798000  1
  O  O19  1  0.45684300  0.46362800  0.25202000  1
  O  O20  1  0.77129300  0.56817900  0.03977200  1
  O  O21  1  0.22870700  0.43182100  0.96022800  1
  O  O22  1  0.81353800  0.86228000  0.87967600  1
  O  O23  1  0.18646200  0.13772000  0.12032400  1
  O  O24  1  0.06731300  0.95301200  0.67793400  1
  O  O25  1  0.93268700  0.04698800  0.32206600  1
  O  O26  1  0.49509700  0.21469900  0.98397200  1
  O  O27  1  0.50490300  0.78530100  0.01602800  1
  O  O28  1  0.14097500  0.71970900  0.86044500  1
  O  O29  1  0.42487800  0.18564400  0.55846300  1
