# generated using pymatgen
data_Ba2TaCrO6
_symmetry_space_group_name_H-M   'P 1'
_cell_length_a   5.81948654
_cell_length_b   5.81948654
_cell_length_c   19.14643665
_cell_angle_alpha   90.00000000
_cell_angle_beta   90.00000000
_cell_angle_gamma   120.00000000
_symmetry_Int_Tables_number   1
_chemical_formula_structural   Ba2TaCrO6
_chemical_formula_sum   'Ba8 Ta4 Cr4 O24'
_cell_volume   561.54934737
_cell_formula_units_Z   4
loop_
 _symmetry_equiv_pos_site_id
 _symmetry_equiv_pos_as_xyz
  1  'x, y, z'
loop_
 _atom_site_type_symbol
 _atom_site_label
 _atom_site_symmetry_multiplicity
 _atom_site_fract_x
 _atom_site_fract_y
 _atom_site_fract_z
 _atom_site_occupancy
  O  O0  1  0.17065977  0.82934035  0.87992944  1
  O  O1  1  0.17065955  0.34131910  0.87992944  1
  O  O2  1  0.65868058  0.82934035  0.87992944  1
  O  O3  1  0.34132002  0.17066054  0.37992929  1
  O  O4  1  0.82934105  0.65868180  0.12007087  1
  O  O5  1  0.82934083  0.17066054  0.37992929  1
  O  O6  1  0.82934105  0.65868180  0.37992929  1
  O  O7  1  0.17065977  0.82934035  0.62007050  1
  O  O8  1  0.65868058  0.82934035  0.62007050  1
  O  O9  1  0.34132002  0.17066054  0.12007087  1
  O  O10  1  0.82934083  0.17066054  0.12007087  1
  O  O11  1  0.17065955  0.34131910  0.62007050  1
  O  O12  1  0.84971812  0.69943593  0.74999997  1
  O  O13  1  0.15028168  0.84971841  0.24999982  1
  O  O14  1  0.69943674  0.84971841  0.24999982  1
  O  O15  1  0.30056386  0.15028248  0.74999997  1
  O  O16  1  0.50000015  0.00000000  0.00000000  1
  O  O17  1  0.49999944  0.50000045  0.50000016  1
  O  O18  1  0.00000101  0.50000045  0.50000016  1
  O  O19  1  0.00000101  0.50000045  0.00000000  1
  O  O20  1  0.84971892  0.15028248  0.74999997  1
  O  O21  1  0.50000015  0.00000000  0.50000016  1
  O  O22  1  0.15028149  0.30056298  0.24999982  1
  O  O23  1  0.49999944  0.50000045  0.00000000  1
  Cr  Cr24  1  0.00000000  0.00000000  0.81861232  1
  Cr  Cr25  1  0.00000000  0.00000000  0.18138799  1
  Cr  Cr26  1  0.00000000  0.00000000  0.68138762  1
  Cr  Cr27  1  0.00000000  0.00000000  0.31861217  1
  Ba  Ba28  1  0.00000000  0.00000000  0.00000000  1
  Ba  Ba29  1  0.66666663  0.33333297  0.24999982  1
  Ba  Ba30  1  0.33333297  0.66666594  0.74999997  1
  Ba  Ba31  1  0.00000000  0.00000000  0.50000016  1
  Ba  Ba32  1  0.33333297  0.66666594  0.14205796  1
  Ba  Ba33  1  0.66666663  0.33333297  0.85794183  1
  Ba  Ba34  1  0.66666663  0.33333297  0.64205812  1
  Ba  Ba35  1  0.33333297  0.66666594  0.35794167  1
  Ta  Ta36  1  0.33333297  0.66666594  0.56341883  1
  Ta  Ta37  1  0.66666663  0.33333297  0.06341867  1
  Ta  Ta38  1  0.66666663  0.33333297  0.43658096  1
  Ta  Ta39  1  0.33333297  0.66666594  0.93658112  1
