# generated using pymatgen
data_B10H13I
_symmetry_space_group_name_H-M   'P 1'
_cell_length_a   12.31926400
_cell_length_b   14.39028400
_cell_length_c   14.47897331
_cell_angle_alpha   60.83675343
_cell_angle_beta   90.00000000
_cell_angle_gamma   90.00000000
_symmetry_Int_Tables_number   1
_chemical_formula_structural   B10H13I
_chemical_formula_sum   'B80 H104 I8'
_cell_volume   2241.41849665
_cell_formula_units_Z   8
loop_
 _symmetry_equiv_pos_site_id
 _symmetry_equiv_pos_as_xyz
  1  'x, y, z'
loop_
 _atom_site_type_symbol
 _atom_site_label
 _atom_site_symmetry_multiplicity
 _atom_site_fract_x
 _atom_site_fract_y
 _atom_site_fract_z
 _atom_site_occupancy
  B  B0  1  0.77149500  0.66476000  0.83095500  1
  B  B1  1  0.27149500  0.83524000  0.66904500  1
  B  B2  1  0.22850500  0.33524000  0.16904500  1
  B  B3  1  0.72850500  0.16476000  0.33095500  1
  B  B4  1  0.80022000  0.60988600  0.74686300  1
  B  B5  1  0.30022000  0.89011400  0.75313700  1
  B  B6  1  0.19978000  0.39011400  0.25313700  1
  B  B7  1  0.69978000  0.10988600  0.24686300  1
  B  B8  1  0.69729200  0.66051600  0.64807800  1
  B  B9  1  0.19729200  0.83948400  0.85192200  1
  B  B10  1  0.30270800  0.33948400  0.35192200  1
  B  B11  1  0.80270800  0.16051600  0.14807800  1
  B  B12  1  0.67165400  0.81519000  0.57914100  1
  B  B13  1  0.17165400  0.68481000  0.92085900  1
  B  B14  1  0.32834600  0.18481000  0.42085900  1
  B  B15  1  0.82834600  0.31519000  0.07914100  1
  B  B16  1  0.75247000  0.88911500  0.62267900  1
  B  B17  1  0.25247000  0.61088500  0.87732100  1
  B  B18  1  0.24753000  0.11088500  0.37732100  1
  B  B19  1  0.74753000  0.38911500  0.12267900  1
  B  B20  1  0.74416700  0.81819200  0.76301100  1
  B  B21  1  0.24416700  0.68180800  0.73698900  1
  B  B22  1  0.25583300  0.18180800  0.23698900  1
  B  B23  1  0.75583300  0.31819200  0.26301100  1
  B  B24  1  0.66768700  0.60905400  0.78548500  1
  B  B25  1  0.16768700  0.89094600  0.71451500  1
  B  B26  1  0.33231300  0.39094600  0.21451500  1
  B  B27  1  0.83231300  0.10905400  0.28548500  1
  B  B28  1  0.59537700  0.72016800  0.68561600  1
  B  B29  1  0.09537700  0.77983200  0.81438400  1
  B  B30  1  0.40462300  0.27983200  0.31438400  1
  B  B31  1  0.90462300  0.22016800  0.18561600  1
  B  B32  1  0.62719500  0.84356500  0.68032700  1
  B  B33  1  0.12719500  0.65643500  0.81967300  1
  B  B34  1  0.37280500  0.15643500  0.31967300  1
  B  B35  1  0.87280500  0.34356500  0.18032700  1
  B  B36  1  0.64140300  0.72206800  0.80057200  1
  B  B37  1  0.14140300  0.77793200  0.69942800  1
  B  B38  1  0.35859700  0.27793200  0.19942800  1
  B  B39  1  0.85859700  0.22206800  0.30057200  1
  B  B40  1  0.85394800  0.83154800  0.16695300  1
  B  B41  1  0.35394800  0.66845200  0.33304700  1
  B  B42  1  0.14605200  0.16845200  0.83304700  1
  B  B43  1  0.64605200  0.33154800  0.66695300  1
  B  B44  1  0.83024700  0.75242000  0.10535100  1
  B  B45  1  0.33024700  0.74758000  0.39464900  1
  B  B46  1  0.16975300  0.24758000  0.89464900  1
  B  B47  1  0.66975300  0.25242000  0.60535100  1
  B  B48  1  0.93146200  0.65145300  0.15725500  1
  B  B49  1  0.43146200  0.84854700  0.34274500  1
  B  B50  1  0.06853800  0.34854700  0.84274500  1
  B  B51  1  0.56853800  0.15145300  0.65725500  1
  B  B52  1  0.94778700  0.57554000  0.31230500  1
  B  B53  1  0.44778700  0.92446000  0.18769500  1
  B  B54  1  0.05221300  0.42446000  0.68769500  1
  B  B55  1  0.55221300  0.07554000  0.81230500  1
  B  B56  1  0.86207400  0.61561200  0.38565000  1
  B  B57  1  0.36207400  0.88438800  0.11435000  1
  B  B58  1  0.13792600  0.38438800  0.61435000  1
  B  B59  1  0.63792600  0.11561200  0.88565000  1
  B  B60  1  0.87281300  0.75677400  0.32143800  1
  B  B61  1  0.37281300  0.74322600  0.17856200  1
  B  B62  1  0.12718700  0.24322600  0.67856200  1
  B  B63  1  0.62718700  0.25677400  0.82143800  1
  B  B64  1  0.96200000  0.78808900  0.11381200  1
  B  B65  1  0.46200000  0.71191100  0.38618800  1
  B  B66  1  0.03800000  0.21191100  0.88618800  1
  B  B67  1  0.53800000  0.28808900  0.61381200  1
  B  B68  1  0.02850900  0.68332500  0.22560000  1
  B  B69  1  0.52850900  0.81667500  0.27440000  1
  B  B70  1  0.97149100  0.31667500  0.77440000  1
  B  B71  1  0.47149100  0.18332500  0.72560000  1
  B  B72  1  0.98914800  0.67227500  0.34904800  1
  B  B73  1  0.48914800  0.82772500  0.15095200  1
  B  B74  1  0.01085200  0.32772500  0.65095200  1
  B  B75  1  0.51085200  0.17227500  0.84904800  1
  B  B76  1  0.98054800  0.79667000  0.23085700  1
  B  B77  1  0.48054800  0.70333000  0.26914300  1
  B  B78  1  0.01945200  0.20333000  0.76914300  1
  B  B79  1  0.51945200  0.29667000  0.73085700  1
  H  H80  1  0.85477500  0.67869700  0.76716000  1
  H  H81  1  0.35477500  0.82130300  0.73284000  1
  H  H82  1  0.14522500  0.32130300  0.23284000  1
  H  H83  1  0.64522500  0.17869700  0.26716000  1
  H  H84  1  0.80398200  0.67533800  0.64185600  1
  H  H85  1  0.30398200  0.82466200  0.85814400  1
  H  H86  1  0.19601800  0.32466200  0.35814400  1
  H  H87  1  0.69601800  0.17533800  0.14185600  1
  H  H88  1  0.77760000  0.83479400  0.57203400  1
  H  H89  1  0.27760000  0.66520600  0.92796600  1
  H  H90  1  0.22240000  0.16520600  0.42796600  1
  H  H91  1  0.72240000  0.33479400  0.07203400  1
  H  H92  1  0.82738400  0.83727300  0.69817100  1
  H  H93  1  0.32738400  0.66272700  0.80182900  1
  H  H94  1  0.17261600  0.16272700  0.30182900  1
  H  H95  1  0.67261600  0.33727300  0.19817100  1
  H  H96  1  0.81009700  0.62569400  0.91724500  1
  H  H97  1  0.31009700  0.87430600  0.58275500  1
  H  H98  1  0.18990300  0.37430600  0.08275500  1
  H  H99  1  0.68990300  0.12569400  0.41724500  1
  H  H100  1  0.85999900  0.53786100  0.76580600  1
  H  H101  1  0.35999900  0.96213900  0.73419400  1
  H  H102  1  0.14000100  0.46213900  0.23419400  1
  H  H103  1  0.64000100  0.03786100  0.26580600  1
  H  H104  1  0.67912600  0.61743200  0.59728500  1
  H  H105  1  0.17912600  0.88256800  0.90271500  1
  H  H106  1  0.32087400  0.38256800  0.40271500  1
  H  H107  1  0.82087400  0.11743200  0.09728500  1
  H  H108  1  0.64052400  0.85714900  0.48995000  1
  H  H109  1  0.14052400  0.64285100  0.01005000  1
  H  H110  1  0.35947600  0.14285100  0.51005000  1
  H  H111  1  0.85947600  0.35714900  0.98995000  1
  H  H112  1  0.78547200  0.97732400  0.56993300  1
  H  H113  1  0.28547200  0.52267600  0.93006700  1
  H  H114  1  0.21452800  0.02267600  0.43006700  1
  H  H115  1  0.71452800  0.47732400  0.06993300  1
  H  H116  1  0.76663800  0.86104700  0.81322100  1
  H  H117  1  0.26663800  0.63895300  0.68677900  1
  H  H118  1  0.23336200  0.13895300  0.18677900  1
  H  H119  1  0.73336200  0.36104700  0.31322100  1
  H  H120  1  0.62159600  0.52740800  0.83980400  1
  H  H121  1  0.12159600  0.97259200  0.66019600  1
  H  H122  1  0.37840400  0.47259200  0.16019600  1
  H  H123  1  0.87840400  0.02740800  0.33980400  1
  H  H124  1  0.50506700  0.70655300  0.66456100  1
  H  H125  1  0.00506700  0.79344700  0.83543900  1
  H  H126  1  0.49493300  0.29344700  0.33543900  1
  H  H127  1  0.84734200  0.80443600  0.36620600  1
  H  H128  1  0.99493300  0.20655300  0.16456100  1
  H  H129  1  0.05677300  0.59545900  0.82966700  1
  H  H130  1  0.44322700  0.09545900  0.32966700  1
  H  H131  1  0.94322700  0.40454100  0.17033300  1
  H  H132  1  0.77116300  0.76914100  0.17385300  1
  H  H133  1  0.27116300  0.73085900  0.32614700  1
  H  H134  1  0.22883700  0.23085900  0.82614700  1
  H  H135  1  0.72883700  0.26914100  0.67385300  1
  H  H136  1  0.82419400  0.64608400  0.16608700  1
  H  H137  1  0.32419400  0.85391600  0.33391300  1
  H  H138  1  0.17580600  0.35391600  0.83391300  1
  H  H139  1  0.67580600  0.14608400  0.66608700  1
  H  H140  1  0.84077100  0.57040600  0.32548600  1
  H  H141  1  0.34077100  0.92959400  0.17451400  1
  H  H142  1  0.15922900  0.42959400  0.67451400  1
  H  H143  1  0.65922900  0.07040600  0.82548600  1
  H  H144  1  0.78924500  0.69370200  0.33355200  1
  H  H145  1  0.28924500  0.80629800  0.16644800  1
  H  H146  1  0.21075500  0.30629800  0.66644800  1
  H  H147  1  0.71075500  0.19370200  0.83355200  1
  H  H148  1  0.81659200  0.91881900  0.12928800  1
  H  H149  1  0.31659200  0.58118100  0.37071200  1
  H  H150  1  0.18340800  0.08118100  0.87071200  1
  H  H151  1  0.68340800  0.41881900  0.62928800  1
  H  H152  1  0.77469400  0.77540100  0.03000500  1
  H  H153  1  0.27469400  0.72459900  0.46999500  1
  H  H154  1  0.22530600  0.22459900  0.96999500  1
  H  H155  1  0.72530600  0.27540100  0.53000500  1
  H  H156  1  0.95348200  0.60372800  0.11178800  1
  H  H157  1  0.45348200  0.89627200  0.38821200  1
  H  H158  1  0.04651800  0.39627200  0.88821200  1
  H  H159  1  0.54651800  0.10372800  0.61178800  1
  H  H160  1  0.97654500  0.48510600  0.35201400  1
  H  H161  1  0.47654500  0.01489400  0.14798600  1
  H  H162  1  0.02345500  0.51489400  0.64798600  1
  H  H163  1  0.52345500  0.98510600  0.85201400  1
  H  H164  1  0.82509300  0.55897300  0.47096900  1
  H  H165  1  0.32509300  0.94102700  0.02903100  1
  H  H166  1  0.17490700  0.44102700  0.52903100  1
  H  H167  1  0.67490700  0.05897300  0.97096900  1
  H  H168  1  0.44411500  0.15801400  0.91426500  1
  H  H169  1  0.94411500  0.34198600  0.58573500  1
  H  H170  1  0.55588500  0.84198600  0.08573500  1
  H  H171  1  0.05588500  0.65801400  0.41426500  1
  H  H172  1  0.38002400  0.16183800  0.71583700  1
  H  H173  1  0.88002400  0.33816200  0.78416300  1
  H  H174  1  0.61997600  0.83816200  0.28416300  1
  H  H175  1  0.11997600  0.66183800  0.21583700  1
  H  H176  1  0.48791700  0.34494800  0.53613100  1
  H  H177  1  0.98791700  0.15505200  0.96386900  1
  H  H178  1  0.51208300  0.65505200  0.46386900  1
  H  H179  1  0.01208300  0.84494800  0.03613100  1
  H  H180  1  0.65265800  0.30443600  0.86620600  1
  H  H181  1  0.15265800  0.19556400  0.63379400  1
  H  H182  1  0.34734200  0.69556400  0.13379400  1
  H  H183  1  0.55677300  0.90454100  0.67033300  1
  I  I184  1  0.54173300  0.69818400  0.93601000  1
  I  I185  1  0.04173300  0.80181600  0.56399000  1
  I  I186  1  0.45826700  0.30181600  0.06399000  1
  I  I187  1  0.95826700  0.19818400  0.43601000  1
  I  I188  1  0.07991600  0.92900000  0.21829800  1
  I  I189  1  0.57991600  0.57100000  0.28170200  1
  I  I190  1  0.92008400  0.07100000  0.78170200  1
  I  I191  1  0.42008400  0.42900000  0.71829800  1
