# generated using pymatgen
data_Mg9Sn5
_symmetry_space_group_name_H-M   'P 1'
_cell_length_a   8.88327956
_cell_length_b   8.88327956
_cell_length_c   8.88327994
_cell_angle_alpha   96.92612714
_cell_angle_beta   96.92612714
_cell_angle_gamma   96.92612655
_symmetry_Int_Tables_number   1
_chemical_formula_structural   Mg9Sn5
_chemical_formula_sum   'Mg18 Sn10'
_cell_volume   684.28374438
_cell_formula_units_Z   2
loop_
 _symmetry_equiv_pos_site_id
 _symmetry_equiv_pos_as_xyz
  1  'x, y, z'
loop_
 _atom_site_type_symbol
 _atom_site_label
 _atom_site_symmetry_multiplicity
 _atom_site_fract_x
 _atom_site_fract_y
 _atom_site_fract_z
 _atom_site_occupancy
  Mg  Mg0  1  0.74427900  0.34822600  0.65755500  1
  Mg  Mg1  1  0.34822600  0.65755500  0.74427900  1
  Mg  Mg2  1  0.65755500  0.74427900  0.34822600  1
  Mg  Mg3  1  0.25566000  0.66352100  0.34697200  1
  Mg  Mg4  1  0.66352100  0.34697200  0.25566000  1
  Mg  Mg5  1  0.34697200  0.25566000  0.66352100  1
  Mg  Mg6  1  0.60481100  0.97960400  0.67872100  1
  Mg  Mg7  1  0.97960400  0.67872100  0.60481100  1
  Mg  Mg8  1  0.67872100  0.60481100  0.97960400  1
  Mg  Mg9  1  0.40457000  0.02947900  0.33417500  1
  Mg  Mg10  1  0.08246000  0.67507900  0.99581500  1
  Mg  Mg11  1  0.99581500  0.08246000  0.67507900  1
  Mg  Mg12  1  0.67507900  0.99581500  0.08246000  1
  Mg  Mg13  1  0.92713700  0.31951700  0.00604600  1
  Mg  Mg14  1  0.00604600  0.92713700  0.31951700  1
  Mg  Mg15  1  0.31951700  0.00604600  0.92713700  1
  Mg  Mg16  1  0.33417500  0.40457000  0.02947900  1
  Mg  Mg17  1  0.02947900  0.33417500  0.40457000  1
  Sn  Sn18  1  0.14964200  0.14964200  0.14964200  1
  Sn  Sn19  1  0.88684100  0.88684100  0.88684100  1
  Sn  Sn20  1  0.38687900  0.38687900  0.38687900  1
  Sn  Sn21  1  0.64750900  0.64750900  0.64750900  1
  Sn  Sn22  1  0.59047100  0.25171000  0.91792900  1
  Sn  Sn23  1  0.25171000  0.91792900  0.59047100  1
  Sn  Sn24  1  0.91792900  0.59047100  0.25171000  1
  Sn  Sn25  1  0.41610900  0.75098200  0.08930300  1
  Sn  Sn26  1  0.75098200  0.08930300  0.41610900  1
  Sn  Sn27  1  0.08930300  0.41610900  0.75098200  1
