# generated using pymatgen
data_Nb2Co4O9
_symmetry_space_group_name_H-M   'P 1'
_cell_length_a   5.22575227
_cell_length_b   5.22563195
_cell_length_c   14.29855963
_cell_angle_alpha   89.97759452
_cell_angle_beta   89.96575735
_cell_angle_gamma   59.98788470
_symmetry_Int_Tables_number   1
_chemical_formula_structural   Nb2Co4O9
_chemical_formula_sum   'Nb4 Co8 O18'
_cell_volume   338.10955725
_cell_formula_units_Z   2
loop_
 _symmetry_equiv_pos_site_id
 _symmetry_equiv_pos_as_xyz
  1  'x, y, z'
loop_
 _atom_site_type_symbol
 _atom_site_label
 _atom_site_symmetry_multiplicity
 _atom_site_fract_x
 _atom_site_fract_y
 _atom_site_fract_z
 _atom_site_occupancy
  Nb  Nb0  1  0.99947500  0.00081200  0.64177500  1
  Nb  Nb1  1  0.00005200  0.99992200  0.85841900  1
  Nb  Nb2  1  0.00035400  0.99911000  0.35860400  1
  Nb  Nb3  1  0.99975100  0.00014400  0.14139000  1
  Co  Co4  1  0.33333100  0.33344000  0.01519800  1
  Co  Co5  1  0.33311000  0.33366600  0.51390700  1
  Co  Co6  1  0.66664000  0.66674100  0.98542600  1
  Co  Co7  1  0.33299700  0.33346000  0.30520800  1
  Co  Co8  1  0.66613000  0.66857700  0.48792000  1
  Co  Co9  1  0.66667300  0.66696600  0.69404300  1
  Co  Co10  1  0.33326800  0.33341900  0.80614200  1
  Co  Co11  1  0.66635600  0.66669900  0.19481300  1
  O  O12  1  0.70983300  0.28979700  0.24992700  1
  O  O13  1  0.99997400  0.71006500  0.24961700  1
  O  O14  1  0.28951400  0.00013300  0.24985800  1
  O  O15  1  0.28976400  0.70988700  0.74978900  1
  O  O16  1  0.00012200  0.28989100  0.74981600  1
  O  O17  1  0.70998400  0.00042500  0.74990200  1
  O  O18  1  0.34388100  0.97843500  0.58407500  1
  O  O19  1  0.67808500  0.34332300  0.58341100  1
  O  O20  1  0.97844900  0.67820800  0.58401400  1
  O  O21  1  0.32175600  0.02193100  0.91597200  1
  O  O22  1  0.02197600  0.65624200  0.91602300  1
  O  O23  1  0.65628500  0.32181000  0.91600600  1
  O  O24  1  0.65767000  0.01883200  0.41614900  1
  O  O25  1  0.32288600  0.65610700  0.41580900  1
  O  O26  1  0.02172900  0.32153800  0.41606300  1
  O  O27  1  0.67815000  0.97857600  0.08356100  1
  O  O28  1  0.97830900  0.34350800  0.08356900  1
  O  O29  1  0.34349900  0.67833900  0.08359400  1
