# generated using pymatgen
data_Mo2(PO4)3
_symmetry_space_group_name_H-M   'P 1'
_cell_length_a   8.81215566
_cell_length_b   8.97817010
_cell_length_c   8.81215580
_cell_angle_alpha   90.02935695
_cell_angle_beta   59.61101278
_cell_angle_gamma   119.04572147
_symmetry_Int_Tables_number   1
_chemical_formula_structural   Mo2(PO4)3
_chemical_formula_sum   'Mo4 P6 O24'
_cell_volume   497.22598277
_cell_formula_units_Z   2
loop_
 _symmetry_equiv_pos_site_id
 _symmetry_equiv_pos_as_xyz
  1  'x, y, z'
loop_
 _atom_site_type_symbol
 _atom_site_label
 _atom_site_symmetry_multiplicity
 _atom_site_fract_x
 _atom_site_fract_y
 _atom_site_fract_z
 _atom_site_occupancy
  Mo  Mo0  1  0.28481596  0.92728287  0.35630620  1
  Mo  Mo1  1  0.28477214  0.42532522  0.85845282  1
  Mo  Mo2  1  0.71641093  0.57271813  0.14246591  1
  Mo  Mo3  1  0.71622196  0.07467578  0.64055308  1
  P  P4  1  0.78518394  0.75168211  0.75211749  1
  P  P5  1  0.49997890  0.24949114  0.53458898  1
  P  P6  1  0.49620040  0.74831689  0.46649918  1
  P  P7  1  0.21591788  0.25050786  0.24951324  1
  P  P8  1  0.78595243  0.25000100  0.96404757  1
  P  P9  1  0.21383118  0.74999900  0.03616782  1
  O  O10  1  0.64801321  0.91729062  0.48029746  1
  O  O11  1  0.01800891  0.73158348  0.06144712  1
  O  O12  1  0.21238448  0.58112456  0.00611469  1
  O  O13  1  0.20696840  0.76841652  0.21357357  1
  O  O14  1  0.96656044  0.25858255  0.95345059  1
  O  O15  1  0.78300328  0.41915954  0.00689842  1
  O  O16  1  0.78796785  0.24141745  0.79202311  1
  O  O17  1  0.80464727  0.73031592  0.91412713  1
  O  O18  1  0.99660127  0.78739081  0.57435534  1
  O  O19  1  0.64896805  0.23224658  0.56421858  1
  O  O20  1  0.78420212  0.92031034  0.72979328  1
  O  O21  1  0.60241292  0.58271038  0.76927641  1
  O  O22  1  0.57394304  0.08084046  0.13615626  1
  O  O23  1  0.64196777  0.42049877  0.36646823  1
  O  O24  1  0.20353384  0.26775342  0.08327852  1
  O  O25  1  0.34142066  0.26624834  0.70868755  1
  O  O26  1  0.63825185  0.71260819  0.29079054  1
  O  O27  1  0.02506411  0.23375166  0.42482669  1
  O  O28  1  0.41276075  0.91887544  0.86874008  1
  O  O29  1  0.34989738  0.57969066  0.63610721  1
  O  O30  1  0.21303200  0.07950123  0.27853200  1
  O  O31  1  0.41895055  0.42014792  0.21112289  1
  O  O32  1  0.35555694  0.76968408  0.42566765  1
  O  O33  1  0.36873019  0.07985208  0.50119737  1
