# generated using pymatgen
data_NdZn5
_symmetry_space_group_name_H-M   'P 1'
_cell_length_a   5.39509000
_cell_length_b   5.39509000
_cell_length_c   4.26684100
_cell_angle_alpha   90.00000000
_cell_angle_beta   90.00000000
_cell_angle_gamma   120.00000005
_symmetry_Int_Tables_number   1
_chemical_formula_structural   NdZn5
_chemical_formula_sum   'Nd1 Zn5'
_cell_volume   107.55595963
_cell_formula_units_Z   1
loop_
 _symmetry_equiv_pos_site_id
 _symmetry_equiv_pos_as_xyz
  1  'x, y, z'
loop_
 _atom_site_type_symbol
 _atom_site_label
 _atom_site_symmetry_multiplicity
 _atom_site_fract_x
 _atom_site_fract_y
 _atom_site_fract_z
 _atom_site_occupancy
  Nd  Nd0  1  0.00000000  0.00000000  0.00000000  1
  Zn  Zn1  1  0.00000000  0.50000000  0.50000000  1
  Zn  Zn2  1  0.33333300  0.66666700  0.00000000  1
  Zn  Zn3  1  0.66666700  0.33333300  0.00000000  1
  Zn  Zn4  1  0.50000000  0.00000000  0.50000000  1
  Zn  Zn5  1  0.50000000  0.50000000  0.50000000  1
