# generated using pymatgen
data_Sr3Tl2O6
_symmetry_space_group_name_H-M   'P 1'
_cell_length_a   3.52859700
_cell_length_b   12.02279900
_cell_length_c   17.23286900
_cell_angle_alpha   90.00000000
_cell_angle_beta   90.00000000
_cell_angle_gamma   90.00000000
_symmetry_Int_Tables_number   1
_chemical_formula_structural   Sr3Tl2O6
_chemical_formula_sum   'Sr12 Tl8 O24'
_cell_volume   731.08055643
_cell_formula_units_Z   4
loop_
 _symmetry_equiv_pos_site_id
 _symmetry_equiv_pos_as_xyz
  1  'x, y, z'
loop_
 _atom_site_type_symbol
 _atom_site_label
 _atom_site_symmetry_multiplicity
 _atom_site_fract_x
 _atom_site_fract_y
 _atom_site_fract_z
 _atom_site_occupancy
  Sr  Sr0  1  0.50000000  0.09634700  0.85382800  1
  Sr  Sr1  1  0.50000000  0.90365300  0.14617200  1
  Sr  Sr2  1  0.50000000  0.59634700  0.64617200  1
  Sr  Sr3  1  0.50000000  0.40365300  0.35382800  1
  Sr  Sr4  1  0.50000000  0.36709800  0.95895500  1
  Sr  Sr5  1  0.50000000  0.63290200  0.04104500  1
  Sr  Sr6  1  0.50000000  0.86709800  0.54104500  1
  Sr  Sr7  1  0.50000000  0.13290200  0.45895500  1
  Sr  Sr8  1  0.50000000  0.32526100  0.72558100  1
  Sr  Sr9  1  0.50000000  0.67473900  0.27441900  1
  Sr  Sr10  1  0.50000000  0.82526100  0.77441900  1
  Sr  Sr11  1  0.50000000  0.17473900  0.22558100  1
  Tl  Tl12  1  0.00000000  0.40886000  0.14732200  1
  Tl  Tl13  1  0.00000000  0.59114000  0.85267800  1
  Tl  Tl14  1  0.00000000  0.90886000  0.35267800  1
  Tl  Tl15  1  0.00000000  0.09114000  0.64732200  1
  Tl  Tl16  1  0.00000000  0.36814600  0.54231600  1
  Tl  Tl17  1  0.00000000  0.63185400  0.45768400  1
  Tl  Tl18  1  0.00000000  0.86814600  0.95768400  1
  Tl  Tl19  1  0.00000000  0.13185400  0.04231600  1
  O  O20  1  0.00000000  0.18621400  0.76128400  1
  O  O21  1  0.00000000  0.81378600  0.23871600  1
  O  O22  1  0.00000000  0.68621400  0.73871600  1
  O  O23  1  0.00000000  0.31378600  0.26128400  1
  O  O24  1  0.50000000  0.47284500  0.83029900  1
  O  O25  1  0.50000000  0.52715500  0.16970100  1
  O  O26  1  0.50000000  0.97284500  0.66970100  1
  O  O27  1  0.50000000  0.02715500  0.33029900  1
  O  O28  1  0.50000000  0.21304000  0.59648100  1
  O  O29  1  0.50000000  0.78696000  0.40351900  1
  O  O30  1  0.50000000  0.71304000  0.90351900  1
  O  O31  1  0.50000000  0.28696000  0.09648100  1
  O  O32  1  0.50000000  0.50000000  0.50000000  1
  O  O33  1  0.50000000  0.00000000  0.00000000  1
  O  O34  1  0.00000000  0.21301900  0.93442000  1
  O  O35  1  0.00000000  0.78698100  0.06558000  1
  O  O36  1  0.00000000  0.71301900  0.56558000  1
  O  O37  1  0.00000000  0.28698100  0.43442000  1
  O  O38  1  0.00000000  0.00000000  0.50000000  1
  O  O39  1  0.00000000  0.50000000  0.00000000  1
  O  O40  1  0.00000000  0.06128700  0.15381200  1
  O  O41  1  0.00000000  0.93871300  0.84618800  1
  O  O42  1  0.00000000  0.56128700  0.34618800  1
  O  O43  1  0.00000000  0.43871300  0.65381200  1
