# generated using pymatgen
data_Sc6Te2Rh
_symmetry_space_group_name_H-M   'P 1'
_cell_length_a   7.80637743
_cell_length_b   7.80637743
_cell_length_c   3.79384000
_cell_angle_alpha   90.00000000
_cell_angle_beta   90.00000000
_cell_angle_gamma   119.99999516
_symmetry_Int_Tables_number   1
_chemical_formula_structural   Sc6Te2Rh
_chemical_formula_sum   'Sc6 Te2 Rh1'
_cell_volume   200.22059801
_cell_formula_units_Z   1
loop_
 _symmetry_equiv_pos_site_id
 _symmetry_equiv_pos_as_xyz
  1  'x, y, z'
loop_
 _atom_site_type_symbol
 _atom_site_label
 _atom_site_symmetry_multiplicity
 _atom_site_fract_x
 _atom_site_fract_y
 _atom_site_fract_z
 _atom_site_occupancy
  Sc  Sc0  1  0.24253700  0.00000000  0.00000000  1
  Sc  Sc1  1  0.75746300  0.75746300  0.00000000  1
  Sc  Sc2  1  0.00000000  0.24253700  0.00000000  1
  Sc  Sc3  1  0.60846400  0.00000000  0.50000000  1
  Sc  Sc4  1  0.39153600  0.39153600  0.50000000  1
  Sc  Sc5  1  0.00000000  0.60846400  0.50000000  1
  Te  Te6  1  0.66666700  0.33333300  0.00000000  1
  Te  Te7  1  0.33333300  0.66666700  0.00000000  1
  Rh  Rh8  1  0.00000000  0.00000000  0.50000000  1
