# generated using pymatgen
data_Nd5Si4
_symmetry_space_group_name_H-M   'P 1'
_cell_length_a   7.89445400
_cell_length_b   7.89445400
_cell_length_c   15.13741200
_cell_angle_alpha   90.00000000
_cell_angle_beta   90.00000000
_cell_angle_gamma   90.00000000
_symmetry_Int_Tables_number   1
_chemical_formula_structural   Nd5Si4
_chemical_formula_sum   'Nd20 Si16'
_cell_volume   943.39990554
_cell_formula_units_Z   4
loop_
 _symmetry_equiv_pos_site_id
 _symmetry_equiv_pos_as_xyz
  1  'x, y, z'
loop_
 _atom_site_type_symbol
 _atom_site_label
 _atom_site_symmetry_multiplicity
 _atom_site_fract_x
 _atom_site_fract_y
 _atom_site_fract_z
 _atom_site_occupancy
  Nd  Nd0  1  0.48123100  0.37276900  0.12596700  1
  Nd  Nd1  1  0.98123100  0.12723100  0.62403300  1
  Nd  Nd2  1  0.87276900  0.01876900  0.87596700  1
  Nd  Nd3  1  0.12723100  0.98123100  0.37596700  1
  Nd  Nd4  1  0.51876900  0.62723100  0.62596700  1
  Nd  Nd5  1  0.37276900  0.48123100  0.87403300  1
  Nd  Nd6  1  0.62723100  0.51876900  0.37403300  1
  Nd  Nd7  1  0.01876900  0.87276900  0.12403300  1
  Nd  Nd8  1  0.62274700  0.98858800  0.44821000  1
  Nd  Nd9  1  0.37725300  0.01141200  0.94821000  1
  Nd  Nd10  1  0.98858800  0.62274700  0.55179000  1
  Nd  Nd11  1  0.48858800  0.87725300  0.19821000  1
  Nd  Nd12  1  0.51141200  0.12274700  0.69821000  1
  Nd  Nd13  1  0.87725300  0.48858800  0.80179000  1
  Nd  Nd14  1  0.12274700  0.51141200  0.30179000  1
  Nd  Nd15  1  0.01141200  0.37725300  0.05179000  1
  Nd  Nd16  1  0.30860200  0.30860200  0.50000000  1
  Nd  Nd17  1  0.19139800  0.80860200  0.75000000  1
  Nd  Nd18  1  0.80860200  0.19139800  0.25000000  1
  Nd  Nd19  1  0.69139800  0.69139800  0.00000000  1
  Si  Si20  1  0.28782700  0.92257400  0.55972500  1
  Si  Si21  1  0.71217300  0.07742600  0.05972500  1
  Si  Si22  1  0.92257400  0.28782700  0.44027500  1
  Si  Si23  1  0.42257400  0.21217300  0.30972500  1
  Si  Si24  1  0.57742600  0.78782700  0.80972500  1
  Si  Si25  1  0.21217300  0.42257400  0.69027500  1
  Si  Si26  1  0.78782700  0.57742600  0.19027500  1
  Si  Si27  1  0.07742600  0.71217300  0.94027500  1
  Si  Si28  1  0.80565400  0.83056900  0.70124200  1
  Si  Si29  1  0.19434600  0.16943100  0.20124200  1
  Si  Si30  1  0.83056900  0.80565400  0.29875800  1
  Si  Si31  1  0.33056900  0.69434600  0.45124200  1
  Si  Si32  1  0.66943100  0.30565400  0.95124200  1
  Si  Si33  1  0.69434600  0.33056900  0.54875800  1
  Si  Si34  1  0.30565400  0.66943100  0.04875800  1
  Si  Si35  1  0.16943100  0.19434600  0.79875800  1
