# generated using pymatgen
data_ZrAl3
_symmetry_space_group_name_H-M   'P 1'
_cell_length_a   9.12158034
_cell_length_b   9.12158034
_cell_length_c   9.12158034
_cell_angle_alpha   154.55304319
_cell_angle_beta   154.55304319
_cell_angle_gamma   36.29626133
_symmetry_Int_Tables_number   1
_chemical_formula_structural   ZrAl3
_chemical_formula_sum   'Zr2 Al6'
_cell_volume   139.93487296
_cell_formula_units_Z   2
loop_
 _symmetry_equiv_pos_site_id
 _symmetry_equiv_pos_as_xyz
  1  'x, y, z'
loop_
 _atom_site_type_symbol
 _atom_site_label
 _atom_site_symmetry_multiplicity
 _atom_site_fract_x
 _atom_site_fract_y
 _atom_site_fract_z
 _atom_site_occupancy
  Zr  Zr0  1  0.11874500  0.11874500  0.00000000  1
  Zr  Zr1  1  0.88125500  0.88125500  0.00000000  1
  Al  Al2  1  0.00000000  0.50000000  0.50000000  1
  Al  Al3  1  0.50000000  0.00000000  0.50000000  1
  Al  Al4  1  0.25000000  0.75000000  0.50000000  1
  Al  Al5  1  0.75000000  0.25000000  0.50000000  1
  Al  Al6  1  0.37480700  0.37480700  0.00000000  1
  Al  Al7  1  0.62519300  0.62519300  0.00000000  1
