# generated using pymatgen
data_LiSbF6
_symmetry_space_group_name_H-M   'P 1'
_cell_length_a   5.54198282
_cell_length_b   5.54198282
_cell_length_c   5.54198282
_cell_angle_alpha   57.36342926
_cell_angle_beta   57.36342926
_cell_angle_gamma   57.36343263
_symmetry_Int_Tables_number   1
_chemical_formula_structural   LiSbF6
_chemical_formula_sum   'Li1 Sb1 F6'
_cell_volume   113.05585299
_cell_formula_units_Z   1
loop_
 _symmetry_equiv_pos_site_id
 _symmetry_equiv_pos_as_xyz
  1  'x, y, z'
loop_
 _atom_site_type_symbol
 _atom_site_label
 _atom_site_symmetry_multiplicity
 _atom_site_fract_x
 _atom_site_fract_y
 _atom_site_fract_z
 _atom_site_occupancy
  Li  Li0  1  0.50000000  0.50000000  0.50000000  1
  Sb  Sb1  1  0.00000000  0.00000000  0.00000000  1
  F  F2  1  0.86136600  0.65908800  0.23939800  1
  F  F3  1  0.23939800  0.86136600  0.65908800  1
  F  F4  1  0.34091200  0.76060200  0.13863400  1
  F  F5  1  0.65908800  0.23939800  0.86136600  1
  F  F6  1  0.76060200  0.13863400  0.34091200  1
  F  F7  1  0.13863400  0.34091200  0.76060200  1
