# generated using pymatgen
data_Sr3FeN3
_symmetry_space_group_name_H-M   'P 1'
_cell_length_a   7.64266248
_cell_length_b   7.64266248
_cell_length_c   5.32376000
_cell_angle_alpha   90.00000000
_cell_angle_beta   90.00000000
_cell_angle_gamma   120.00000416
_symmetry_Int_Tables_number   1
_chemical_formula_structural   Sr3FeN3
_chemical_formula_sum   'Sr6 Fe2 N6'
_cell_volume   269.30129591
_cell_formula_units_Z   2
loop_
 _symmetry_equiv_pos_site_id
 _symmetry_equiv_pos_as_xyz
  1  'x, y, z'
loop_
 _atom_site_type_symbol
 _atom_site_label
 _atom_site_symmetry_multiplicity
 _atom_site_fract_x
 _atom_site_fract_y
 _atom_site_fract_z
 _atom_site_occupancy
  Sr  Sr0  1  0.72580300  0.08613400  0.25000000  1
  Sr  Sr1  1  0.63966900  0.72580300  0.75000000  1
  Sr  Sr2  1  0.08613400  0.36033100  0.75000000  1
  Sr  Sr3  1  0.91386600  0.63966900  0.25000000  1
  Sr  Sr4  1  0.36033100  0.27419700  0.25000000  1
  Sr  Sr5  1  0.27419700  0.91386600  0.75000000  1
  Fe  Fe6  1  0.33333300  0.66666700  0.25000000  1
  Fe  Fe7  1  0.66666700  0.33333300  0.75000000  1
  N  N8  1  0.68700700  0.11564700  0.75000000  1
  N  N9  1  0.57136000  0.68700700  0.25000000  1
  N  N10  1  0.11564700  0.42864000  0.25000000  1
  N  N11  1  0.88435300  0.57136000  0.75000000  1
  N  N12  1  0.42864000  0.31299300  0.75000000  1
  N  N13  1  0.31299300  0.88435300  0.25000000  1
