# generated using pymatgen
data_Co5RuO8
_symmetry_space_group_name_H-M   'P 1'
_cell_length_a   6.04374295
_cell_length_b   6.04374295
_cell_length_c   6.04374303
_cell_angle_alpha   59.20693776
_cell_angle_beta   59.20693776
_cell_angle_gamma   59.20694163
_symmetry_Int_Tables_number   1
_chemical_formula_structural   Co5RuO8
_chemical_formula_sum   'Co5 Ru1 O8'
_cell_volume   153.27959453
_cell_formula_units_Z   1
loop_
 _symmetry_equiv_pos_site_id
 _symmetry_equiv_pos_as_xyz
  1  'x, y, z'
loop_
 _atom_site_type_symbol
 _atom_site_label
 _atom_site_symmetry_multiplicity
 _atom_site_fract_x
 _atom_site_fract_y
 _atom_site_fract_z
 _atom_site_occupancy
  Co  Co0  1  0.86747800  0.86747800  0.86747800  1
  Co  Co1  1  0.50000000  0.00000000  0.50000000  1
  Co  Co2  1  0.50000000  0.50000000  0.00000000  1
  Co  Co3  1  0.00000000  0.50000000  0.50000000  1
  Co  Co4  1  0.13252200  0.13252200  0.13252200  1
  Ru  Ru5  1  0.50000000  0.50000000  0.50000000  1
  O  O6  1  0.27159200  0.73497000  0.73497000  1
  O  O7  1  0.73497000  0.73497000  0.27159200  1
  O  O8  1  0.73497000  0.27159200  0.73497000  1
  O  O9  1  0.73292900  0.73292900  0.73292900  1
  O  O10  1  0.26707100  0.26707100  0.26707100  1
  O  O11  1  0.26503000  0.72840800  0.26503000  1
  O  O12  1  0.26503000  0.26503000  0.72840800  1
  O  O13  1  0.72840800  0.26503000  0.26503000  1
