# generated using pymatgen
data_Li4TeO5
_symmetry_space_group_name_H-M   'P 1'
_cell_length_a   5.18354623
_cell_length_b   5.25879267
_cell_length_c   7.85832592
_cell_angle_alpha   107.47339138
_cell_angle_beta   102.11331653
_cell_angle_gamma   101.86757951
_symmetry_Int_Tables_number   1
_chemical_formula_structural   Li4TeO5
_chemical_formula_sum   'Li8 Te2 O10'
_cell_volume   191.30900918
_cell_formula_units_Z   2
loop_
 _symmetry_equiv_pos_site_id
 _symmetry_equiv_pos_as_xyz
  1  'x, y, z'
loop_
 _atom_site_type_symbol
 _atom_site_label
 _atom_site_symmetry_multiplicity
 _atom_site_fract_x
 _atom_site_fract_y
 _atom_site_fract_z
 _atom_site_occupancy
  Li  Li0  1  0.42186263  0.80121958  0.31726269  1
  Li  Li1  1  0.57813737  0.19878042  0.68273731  1
  Li  Li2  1  -0.00000000  -0.00000000  0.50000000  1
  Li  Li3  1  0.50000000  -0.00000000  -0.00000000  1
  Li  Li4  1  0.22612004  0.39247470  0.88735160  1
  Li  Li5  1  0.77387996  0.60752530  0.11264840  1
  Li  Li6  1  0.29530204  0.61532080  0.60421139  1
  Li  Li7  1  0.70469796  0.38467920  0.39578861  1
  Te  Te8  1  0.89097317  0.79029479  0.78844018  1
  Te  Te9  1  0.10902683  0.20970521  0.21155982  1
  O  O10  1  0.57616929  0.60984143  0.84693617  1
  O  O11  1  0.42383071  0.39015857  0.15306383  1
  O  O12  1  0.05088872  0.55830017  0.32927147  1
  O  O13  1  0.94911128  0.44169983  0.67072853  1
  O  O14  1  0.13254737  0.83213387  0.04457123  1
  O  O15  1  0.86745263  0.16786613  0.95542877  1
  O  O16  1  0.21786754  0.99063420  0.75044581  1
  O  O17  1  0.78213246  0.00936580  0.24955419  1
  O  O18  1  0.33631520  0.18072137  0.42668527  1
  O  O19  1  0.66368480  0.81927863  0.57331473  1
