# generated using pymatgen
data_Na6Al4Fe(Si4O13)2
_symmetry_space_group_name_H-M   'P 1'
_cell_length_a   8.09312698
_cell_length_b   8.60342949
_cell_length_c   10.60134688
_cell_angle_alpha   110.80117763
_cell_angle_beta   89.87638397
_cell_angle_gamma   117.86027235
_symmetry_Int_Tables_number   1
_chemical_formula_structural   Na6Al4Fe(Si4O13)2
_chemical_formula_sum   'Na6 Al4 Fe1 Si8 O26'
_cell_volume   597.95844441
_cell_formula_units_Z   1
loop_
 _symmetry_equiv_pos_site_id
 _symmetry_equiv_pos_as_xyz
  1  'x, y, z'
loop_
 _atom_site_type_symbol
 _atom_site_label
 _atom_site_symmetry_multiplicity
 _atom_site_fract_x
 _atom_site_fract_y
 _atom_site_fract_z
 _atom_site_occupancy
  Na  Na0  1  0.15714410  0.31698791  0.89127653  1
  Na  Na1  1  0.27812649  0.53988968  0.55748012  1
  Na  Na2  1  0.48084487  0.93207692  0.16529853  1
  Na  Na3  1  0.53931217  0.06700506  0.83411428  1
  Na  Na4  1  0.73696719  0.46012163  0.44268238  1
  Na  Na5  1  0.83734984  0.68347682  0.10877653  1
  Al  Al6  1  0.16021481  0.71210098  0.34766560  1
  Al  Al7  1  0.44698575  0.28807241  0.65121989  1
  Al  Al8  1  0.74874045  0.88101482  0.65736879  1
  Al  Al9  1  0.86933598  0.11929456  0.34476429  1
  Fe  Fe10  1  0.98959585  0.99987939  0.99912937  1
  Si  Si11  1  0.13720668  0.87937369  0.65755683  1
  Si  Si12  1  0.14913280  0.69739275  0.86682610  1
  Si  Si13  1  0.25911105  0.11994847  0.34051713  1
  Si  Si14  1  0.53273642  0.69609777  0.86894795  1
  Si  Si15  1  0.55449716  0.70695316  0.34940783  1
  Si  Si16  1  0.45485438  0.30178773  0.13099708  1
  Si  Si17  1  0.84070240  0.30520265  0.13326174  1
  Si  Si18  1  0.84604148  0.29267387  0.65187946  1
  O  O19  1  0.06281353  0.79675461  0.98170826  1
  O  O20  1  0.06057911  0.72479548  0.49744263  1
  O  O21  1  0.01563737  0.46103174  0.78988848  1
  O  O22  1  0.26084439  0.92469648  0.32045490  1
  O  O23  1  0.19853592  0.77903805  0.74318415  1
  O  O24  1  0.05033760  0.07627970  0.27810594  1
  O  O25  1  0.33543418  0.65026476  0.36580966  1
  O  O26  1  0.35632581  0.73398619  0.93395816  1
  O  O27  1  0.27541267  0.20300099  0.01235740  1
  O  O28  1  0.33774463  0.27551479  0.50055543  1
  O  O29  1  0.57501872  0.78190732  0.74860831  1
  O  O30  1  0.43275058  0.46201912  0.79334106  1
  O  O31  1  0.66419197  0.90301492  0.32343553  1
  O  O32  1  0.33299213  0.07436977  0.67723139  1
  O  O33  1  0.55692378  0.53827679  0.21135257  1
  O  O34  1  0.41870912  0.21774311  0.25332570  1
  O  O35  1  0.66297845  0.71506151  0.48370914  1
  O  O36  1  0.70616933  0.80186822  0.99622249  1
  O  O37  1  0.62838068  0.26614292  0.06616703  1
  O  O38  1  0.68419866  0.34987870  0.63434260  1
  O  O39  1  0.97283687  0.92344184  0.72240845  1
  O  O40  1  0.79678696  0.22156431  0.25479014  1
  O  O41  1  0.75898415  0.09755082  0.67909782  1
  O  O42  1  0.97342598  0.53912430  0.20559302  1
  O  O43  1  0.94891733  0.28422011  0.51849361  1
  O  O44  1  0.91416919  0.19910320  0.00924572  1
