# generated using pymatgen
data_CrAgS2
_symmetry_space_group_name_H-M   'P 1'
_cell_length_a   3.53702426
_cell_length_b   3.53702545
_cell_length_c   13.79675062
_cell_angle_alpha   82.46515659
_cell_angle_beta   97.53470159
_cell_angle_gamma   119.89701916
_symmetry_Int_Tables_number   1
_chemical_formula_structural   CrAgS2
_chemical_formula_sum   'Cr2 Ag2 S4'
_cell_volume   147.90805673
_cell_formula_units_Z   2
loop_
 _symmetry_equiv_pos_site_id
 _symmetry_equiv_pos_as_xyz
  1  'x, y, z'
loop_
 _atom_site_type_symbol
 _atom_site_label
 _atom_site_symmetry_multiplicity
 _atom_site_fract_x
 _atom_site_fract_y
 _atom_site_fract_z
 _atom_site_occupancy
  Cr  Cr0  1  0.49940800  0.50058700  0.49947200  1
  Cr  Cr1  1  0.99940600  0.00060500  0.99946900  1
  Ag  Ag2  1  0.07626100  0.92373600  0.23022200  1
  Ag  Ag3  1  0.57626200  0.42373600  0.73022800  1
  S  S4  1  0.13506700  0.86493400  0.40884500  1
  S  S5  1  0.63506300  0.36494000  0.90884500  1
  S  S6  1  0.36666500  0.63333300  0.09785900  1
  S  S7  1  0.86666800  0.13332900  0.59786000  1
