# generated using pymatgen
data_Cu2Pb(SeO3)3
_symmetry_space_group_name_H-M   'P 1'
_cell_length_a   7.91247909
_cell_length_b   9.46063617
_cell_length_c   12.72787627
_cell_angle_alpha   82.74248562
_cell_angle_beta   73.21442770
_cell_angle_gamma   89.85582319
_symmetry_Int_Tables_number   1
_chemical_formula_structural   Cu2Pb(SeO3)3
_chemical_formula_sum   'Cu8 Pb4 Se12 O36'
_cell_volume   904.28937374
_cell_formula_units_Z   4
loop_
 _symmetry_equiv_pos_site_id
 _symmetry_equiv_pos_as_xyz
  1  'x, y, z'
loop_
 _atom_site_type_symbol
 _atom_site_label
 _atom_site_symmetry_multiplicity
 _atom_site_fract_x
 _atom_site_fract_y
 _atom_site_fract_z
 _atom_site_occupancy
  Cu  Cu0  1  0.55750100  0.55931800  0.29715800  1
  Cu  Cu1  1  0.62049400  0.16904900  0.30315400  1
  Cu  Cu2  1  0.77426500  0.16957100  0.03899600  1
  Cu  Cu3  1  0.37950600  0.83095100  0.69684600  1
  Cu  Cu4  1  0.44249900  0.44068200  0.70284200  1
  Cu  Cu5  1  0.22573500  0.83042900  0.96100400  1
  Cu  Cu6  1  0.16536700  0.24155200  0.01370700  1
  Cu  Cu7  1  0.83463300  0.75844800  0.98629300  1
  Pb  Pb8  1  0.05183700  0.14063200  0.34197000  1
  Pb  Pb9  1  0.12532000  0.66202600  0.34878200  1
  Pb  Pb10  1  0.87468000  0.33797400  0.65121800  1
  Pb  Pb11  1  0.94816300  0.85936800  0.65803000  1
  Se  Se12  1  0.67743600  0.62606700  0.50618700  1
  Se  Se13  1  0.91478800  0.44456700  0.17526200  1
  Se  Se14  1  0.12503300  0.10553900  0.80516900  1
  Se  Se15  1  0.08521200  0.55543300  0.82473800  1
  Se  Se16  1  0.43433800  0.87530800  0.12771500  1
  Se  Se17  1  0.87496700  0.89446100  0.19483100  1
  Se  Se18  1  0.55166700  0.62936800  0.87139100  1
  Se  Se19  1  0.63742100  0.09135300  0.55385900  1
  Se  Se20  1  0.36257900  0.90864700  0.44614100  1
  Se  Se21  1  0.44833300  0.37063200  0.12860900  1
  Se  Se22  1  0.32256400  0.37393300  0.49381300  1
  Se  Se23  1  0.56566200  0.12469200  0.87228500  1
  O  O24  1  0.98708400  0.83060000  0.06903300  1
  O  O25  1  0.85066100  0.13989500  0.54972600  1
  O  O26  1  0.25766600  0.38122600  0.63605600  1
  O  O27  1  0.24609400  0.28626900  0.13984500  1
  O  O28  1  0.63291100  0.44266900  0.56042900  1
  O  O29  1  0.43107200  0.77913400  0.83835600  1
  O  O30  1  0.04271600  0.64217700  0.94024800  1
  O  O31  1  0.36708900  0.55733100  0.43957100  1
  O  O32  1  0.73232600  0.53661800  0.15742500  1
  O  O33  1  0.34326200  0.10896200  0.95084100  1
  O  O34  1  0.95728400  0.35782300  0.05975200  1
  O  O35  1  0.14933900  0.86010500  0.45027400  1
  O  O36  1  0.13158600  0.92286700  0.84055400  1
  O  O37  1  0.30297100  0.95305000  0.58295700  1
  O  O38  1  0.34339400  0.74918000  0.06873000  1
  O  O39  1  0.11942900  0.34684100  0.47468800  1
  O  O40  1  0.56323300  0.22679800  0.75028300  1
  O  O41  1  0.62266300  0.92381200  0.63128900  1
  O  O42  1  0.56892800  0.22086600  0.16164400  1
  O  O43  1  0.69702900  0.04695000  0.41704300  1
  O  O44  1  0.65660600  0.25082000  0.93127000  1
  O  O45  1  0.43676700  0.77320200  0.24971700  1
  O  O46  1  0.04073100  0.89910200  0.25728700  1
  O  O47  1  0.01291600  0.16940000  0.93096700  1
  O  O48  1  0.75390600  0.71373100  0.86015500  1
  O  O49  1  0.26767400  0.46338200  0.84257500  1
  O  O50  1  0.18041800  0.69004300  0.71379900  1
  O  O51  1  0.74233400  0.61877400  0.36394400  1
  O  O52  1  0.37733700  0.07618800  0.36871100  1
  O  O53  1  0.38591800  0.43530200  0.25398800  1
  O  O54  1  0.65673800  0.89103800  0.04915900  1
  O  O55  1  0.81958200  0.30995700  0.28620100  1
  O  O56  1  0.88057100  0.65315900  0.52531200  1
  O  O57  1  0.95926900  0.10089800  0.74271300  1
  O  O58  1  0.86841400  0.07713300  0.15944600  1
  O  O59  1  0.61408200  0.56469800  0.74601200  1
