# generated using pymatgen
data_La23Mg4Rh7
_symmetry_space_group_name_H-M   'P 1'
_cell_length_a   10.23414067
_cell_length_b   10.23414067
_cell_length_c   23.10381900
_cell_angle_alpha   90.00000000
_cell_angle_beta   90.00000000
_cell_angle_gamma   120.00000433
_symmetry_Int_Tables_number   1
_chemical_formula_structural   La23Mg4Rh7
_chemical_formula_sum   'La46 Mg8 Rh14'
_cell_volume   2095.64227388
_cell_formula_units_Z   2
loop_
 _symmetry_equiv_pos_site_id
 _symmetry_equiv_pos_as_xyz
  1  'x, y, z'
loop_
 _atom_site_type_symbol
 _atom_site_label
 _atom_site_symmetry_multiplicity
 _atom_site_fract_x
 _atom_site_fract_y
 _atom_site_fract_z
 _atom_site_occupancy
  La  La0  1  0.41553100  0.20776600  0.55080700  1
  La  La1  1  0.74481100  0.87240500  0.36559500  1
  La  La2  1  0.25518900  0.12759500  0.86559500  1
  La  La3  1  0.42015800  0.21007900  0.00838500  1
  La  La4  1  0.45875200  0.91750300  0.64328800  1
  La  La5  1  0.54010600  0.08021300  0.41351600  1
  La  La6  1  0.79440500  0.20559500  0.71734200  1
  La  La7  1  0.20776600  0.41553100  0.05080700  1
  La  La8  1  0.54010600  0.45989400  0.41351600  1
  La  La9  1  0.45989400  0.91978700  0.91351600  1
  La  La10  1  0.08249700  0.54124800  0.64328800  1
  La  La11  1  0.58493800  0.79246900  0.77977400  1
  La  La12  1  0.91750300  0.45875200  0.14328800  1
  La  La13  1  0.21007900  0.42015800  0.50838500  1
  La  La14  1  0.66666700  0.33333300  0.85355200  1
  La  La15  1  0.45875200  0.54124800  0.64328800  1
  La  La16  1  0.21007900  0.78992100  0.50838500  1
  La  La17  1  0.41119000  0.20559500  0.71734200  1
  La  La18  1  0.78992100  0.57984200  0.00838500  1
  La  La19  1  0.79440500  0.58881000  0.71734200  1
  La  La20  1  0.12759500  0.87240500  0.36559500  1
  La  La21  1  0.20753100  0.79246900  0.77977400  1
  La  La22  1  0.20559500  0.79440500  0.21734200  1
  La  La23  1  0.08021300  0.54010600  0.91351600  1
  La  La24  1  0.20753100  0.41506200  0.77977400  1
  La  La25  1  0.91978700  0.45989400  0.41351600  1
  La  La26  1  0.45989400  0.54010600  0.91351600  1
  La  La27  1  0.79246900  0.20753100  0.27977400  1
  La  La28  1  0.87240500  0.74481100  0.86559500  1
  La  La29  1  0.00000000  0.00000000  0.00048900  1
  La  La30  1  0.78992100  0.21007900  0.00838500  1
  La  La31  1  0.58881000  0.79440500  0.21734200  1
  La  La32  1  0.54124800  0.45875200  0.14328800  1
  La  La33  1  0.00000000  0.00000000  0.50048900  1
  La  La34  1  0.57984200  0.78992100  0.50838500  1
  La  La35  1  0.79223400  0.58446900  0.55080700  1
  La  La36  1  0.58446900  0.79223400  0.05080700  1
  La  La37  1  0.79223400  0.20776600  0.55080700  1
  La  La38  1  0.20776600  0.79223400  0.05080700  1
  La  La39  1  0.20559500  0.41119000  0.21734200  1
  La  La40  1  0.33333300  0.66666700  0.35355200  1
  La  La41  1  0.87240500  0.12759500  0.86559500  1
  La  La42  1  0.12759500  0.25518900  0.36559500  1
  La  La43  1  0.79246900  0.58493800  0.27977400  1
  La  La44  1  0.41506200  0.20753100  0.27977400  1
  La  La45  1  0.54124800  0.08249700  0.14328800  1
  Mg  Mg46  1  0.21175100  0.10587600  0.13653900  1
  Mg  Mg47  1  0.10587600  0.89412400  0.63653900  1
  Mg  Mg48  1  0.00000000  0.00000000  0.24888300  1
  Mg  Mg49  1  0.89412400  0.78824900  0.13653900  1
  Mg  Mg50  1  0.00000000  0.00000000  0.74888300  1
  Mg  Mg51  1  0.10587600  0.21175100  0.63653900  1
  Mg  Mg52  1  0.89412400  0.10587600  0.13653900  1
  Mg  Mg53  1  0.78824900  0.89412400  0.63653900  1
  Rh  Rh54  1  0.47995100  0.95990300  0.28753400  1
  Rh  Rh55  1  0.85655100  0.14344900  0.43659400  1
  Rh  Rh56  1  0.85655100  0.71310200  0.43659400  1
  Rh  Rh57  1  0.66666700  0.33333300  0.63370900  1
  Rh  Rh58  1  0.33333300  0.66666700  0.13370900  1
  Rh  Rh59  1  0.52004900  0.47995100  0.78753400  1
  Rh  Rh60  1  0.14344900  0.85655100  0.93659400  1
  Rh  Rh61  1  0.95990300  0.47995100  0.78753400  1
  Rh  Rh62  1  0.28689800  0.14344900  0.43659400  1
  Rh  Rh63  1  0.52004900  0.04009700  0.78753400  1
  Rh  Rh64  1  0.14344900  0.28689800  0.93659400  1
  Rh  Rh65  1  0.04009700  0.52004900  0.28753400  1
  Rh  Rh66  1  0.47995100  0.52004900  0.28753400  1
  Rh  Rh67  1  0.71310200  0.85655100  0.93659400  1
