# generated using pymatgen
data_KUN3O11
_symmetry_space_group_name_H-M   'P 1'
_cell_length_a   8.46434035
_cell_length_b   8.46434035
_cell_length_c   8.15060405
_cell_angle_alpha   68.80142424
_cell_angle_beta   68.80142424
_cell_angle_gamma   70.62718005
_symmetry_Int_Tables_number   1
_chemical_formula_structural   KUN3O11
_chemical_formula_sum   'K2 U2 N6 O22'
_cell_volume   493.84460204
_cell_formula_units_Z   2
loop_
 _symmetry_equiv_pos_site_id
 _symmetry_equiv_pos_as_xyz
  1  'x, y, z'
loop_
 _atom_site_type_symbol
 _atom_site_label
 _atom_site_symmetry_multiplicity
 _atom_site_fract_x
 _atom_site_fract_y
 _atom_site_fract_z
 _atom_site_occupancy
  K  K0  1  0.00000000  0.50000000  0.50000000  1
  K  K1  1  0.50000000  0.00000000  0.00000000  1
  U  U2  1  0.76143200  0.23856800  0.25000000  1
  U  U3  1  0.23856800  0.76143200  0.75000000  1
  N  N4  1  0.75534600  0.92530400  0.56492700  1
  N  N5  1  0.07469600  0.24465400  0.93507300  1
  N  N6  1  0.92530400  0.75534600  0.06492700  1
  N  N7  1  0.24465400  0.07469600  0.43507300  1
  N  N8  1  0.53827400  0.46172600  0.75000000  1
  N  N9  1  0.46172600  0.53827400  0.25000000  1
  O  O10  1  0.79317600  0.74904800  0.19366200  1
  O  O11  1  0.74904800  0.79317600  0.69366200  1
  O  O12  1  0.66367700  0.33632300  0.75000000  1
  O  O13  1  0.93107000  0.87901800  0.91431500  1
  O  O14  1  0.60307100  0.53802000  0.11719800  1
  O  O15  1  0.85635200  0.33473700  0.34452400  1
  O  O16  1  0.39692900  0.46198000  0.88280200  1
  O  O17  1  0.87901800  0.93107000  0.41431500  1
  O  O18  1  0.25095200  0.20682400  0.30633800  1
  O  O19  1  0.14364800  0.66526300  0.65547600  1
  O  O20  1  0.33473700  0.85635200  0.84452400  1
  O  O21  1  0.36152500  0.93096100  0.42968100  1
  O  O22  1  0.53802000  0.60307100  0.61719800  1
  O  O23  1  0.46198000  0.39692900  0.38280200  1
  O  O24  1  0.66526300  0.14364800  0.15547600  1
  O  O25  1  0.12098200  0.06893000  0.58568500  1
  O  O26  1  0.06893000  0.12098200  0.08568500  1
  O  O27  1  0.20682400  0.25095200  0.80633800  1
  O  O28  1  0.06903900  0.63847500  0.07031900  1
  O  O29  1  0.93096100  0.36152500  0.92968100  1
  O  O30  1  0.63847500  0.06903900  0.57031900  1
  O  O31  1  0.33632300  0.66367700  0.25000000  1
