# generated using pymatgen
data_GePb3O5
_symmetry_space_group_name_H-M   'P 1'
_cell_length_a   10.63445900
_cell_length_b   5.39641600
_cell_length_c   5.61798309
_cell_angle_alpha   86.71946794
_cell_angle_beta   90.00000000
_cell_angle_gamma   90.00000000
_symmetry_Int_Tables_number   1
_chemical_formula_structural   GePb3O5
_chemical_formula_sum   'Ge2 Pb6 O10'
_cell_volume   321.87629648
_cell_formula_units_Z   2
loop_
 _symmetry_equiv_pos_site_id
 _symmetry_equiv_pos_as_xyz
  1  'x, y, z'
loop_
 _atom_site_type_symbol
 _atom_site_label
 _atom_site_symmetry_multiplicity
 _atom_site_fract_x
 _atom_site_fract_y
 _atom_site_fract_z
 _atom_site_occupancy
  Ge  Ge0  1  0.24334800  0.97614700  0.45250900  1
  Ge  Ge1  1  0.74334800  0.02385300  0.54749100  1
  Pb  Pb2  1  0.00138900  0.97545100  0.95214000  1
  Pb  Pb3  1  0.50138900  0.02454900  0.04786000  1
  Pb  Pb4  1  0.74739300  0.49540700  0.01264700  1
  Pb  Pb5  1  0.51652800  0.51635300  0.49881700  1
  Pb  Pb6  1  0.01652800  0.48364700  0.50118300  1
  Pb  Pb7  1  0.24739300  0.50459300  0.98735300  1
  O  O8  1  0.40782300  0.92823600  0.47164500  1
  O  O9  1  0.04991500  0.37933200  0.90437400  1
  O  O10  1  0.16147500  0.82788400  0.70013300  1
  O  O11  1  0.66147500  0.17211600  0.29986700  1
  O  O12  1  0.90782300  0.07176400  0.52835500  1
  O  O13  1  0.54991500  0.62066800  0.09562600  1
  O  O14  1  0.20948900  0.30053900  0.41480700  1
  O  O15  1  0.18153900  0.83719800  0.19410600  1
  O  O16  1  0.70948900  0.69946100  0.58519300  1
  O  O17  1  0.68153900  0.16280200  0.80589400  1
