# generated using pymatgen
data_Pr4(GeS4)3
_symmetry_space_group_name_H-M   'P 1'
_cell_length_a   11.61100580
_cell_length_b   11.61100580
_cell_length_c   11.61100597
_cell_angle_alpha   114.79227466
_cell_angle_beta   114.79227466
_cell_angle_gamma   114.79227632
_symmetry_Int_Tables_number   1
_chemical_formula_structural   Pr4(GeS4)3
_chemical_formula_sum   'Pr8 Ge6 S24'
_cell_volume   892.41052194
_cell_formula_units_Z   2
loop_
 _symmetry_equiv_pos_site_id
 _symmetry_equiv_pos_as_xyz
  1  'x, y, z'
loop_
 _atom_site_type_symbol
 _atom_site_label
 _atom_site_symmetry_multiplicity
 _atom_site_fract_x
 _atom_site_fract_y
 _atom_site_fract_z
 _atom_site_occupancy
  Pr  Pr0  1  0.99570500  0.99570500  0.99570500  1
  Pr  Pr1  1  0.49570500  0.49570500  0.49570500  1
  Pr  Pr2  1  0.43179200  0.20806900  0.97163400  1
  Pr  Pr3  1  0.20806900  0.97163400  0.43179200  1
  Pr  Pr4  1  0.97163400  0.43179200  0.20806900  1
  Pr  Pr5  1  0.70806900  0.93179200  0.47163400  1
  Pr  Pr6  1  0.93179200  0.47163400  0.70806900  1
  Pr  Pr7  1  0.47163400  0.70806900  0.93179200  1
  Ge  Ge8  1  0.14048700  0.35253600  0.96516600  1
  Ge  Ge9  1  0.35253600  0.96516600  0.14048700  1
  Ge  Ge10  1  0.96516600  0.14048700  0.35253600  1
  Ge  Ge11  1  0.85253600  0.64048700  0.46516600  1
  Ge  Ge12  1  0.64048700  0.46516600  0.85253600  1
  Ge  Ge13  1  0.46516600  0.85253600  0.64048700  1
  S  S14  1  0.38384900  0.31101600  0.77948800  1
  S  S15  1  0.31101600  0.77948800  0.38384900  1
  S  S16  1  0.77948800  0.38384900  0.31101600  1
  S  S17  1  0.81101600  0.88384900  0.27948800  1
  S  S18  1  0.88384900  0.27948800  0.81101600  1
  S  S19  1  0.27948800  0.81101600  0.88384900  1
  S  S20  1  0.18370500  0.36933400  0.18382700  1
  S  S21  1  0.36933400  0.18382700  0.18370500  1
  S  S22  1  0.18382700  0.18370500  0.36933400  1
  S  S23  1  0.86933400  0.68370500  0.68382700  1
  S  S24  1  0.68370500  0.68382700  0.86933400  1
  S  S25  1  0.68382700  0.86933400  0.68370500  1
  S  S26  1  0.08273400  0.11011200  0.79344800  1
  S  S27  1  0.11011200  0.79344800  0.08273400  1
  S  S28  1  0.79344800  0.08273400  0.11011200  1
  S  S29  1  0.61011200  0.58273400  0.29344800  1
  S  S30  1  0.58273400  0.29344800  0.61011200  1
  S  S31  1  0.29344800  0.61011200  0.58273400  1
  S  S32  1  0.84960500  0.58230700  0.12668400  1
  S  S33  1  0.58230700  0.12668400  0.84960500  1
  S  S34  1  0.12668400  0.84960500  0.58230700  1
  S  S35  1  0.08230700  0.34960500  0.62668400  1
  S  S36  1  0.34960500  0.62668400  0.08230700  1
  S  S37  1  0.62668400  0.08230700  0.34960500  1
