# generated using pymatgen
data_Pu(IO3)4
_symmetry_space_group_name_H-M   'P 1'
_cell_length_a   10.14101500
_cell_length_b   10.14101500
_cell_length_c   5.39379000
_cell_angle_alpha   90.00000000
_cell_angle_beta   90.00000000
_cell_angle_gamma   90.00000000
_symmetry_Int_Tables_number   1
_chemical_formula_structural   Pu(IO3)4
_chemical_formula_sum   'Pu2 I8 O24'
_cell_volume   554.69836269
_cell_formula_units_Z   2
loop_
 _symmetry_equiv_pos_site_id
 _symmetry_equiv_pos_as_xyz
  1  'x, y, z'
loop_
 _atom_site_type_symbol
 _atom_site_label
 _atom_site_symmetry_multiplicity
 _atom_site_fract_x
 _atom_site_fract_y
 _atom_site_fract_z
 _atom_site_occupancy
  Pu  Pu0  1  0.50000000  0.50000000  0.00000000  1
  Pu  Pu1  1  0.00000000  0.00000000  0.50000000  1
  I  I2  1  0.00166800  0.27153700  0.96942100  1
  I  I3  1  0.50166800  0.77153700  0.53057900  1
  I  I4  1  0.49833200  0.22846300  0.53057900  1
  I  I5  1  0.27153700  0.99833200  0.03057900  1
  I  I6  1  0.22846300  0.50166800  0.46942100  1
  I  I7  1  0.72846300  0.00166800  0.03057900  1
  I  I8  1  0.77153700  0.49833200  0.46942100  1
  I  I9  1  0.99833200  0.72846300  0.96942100  1
  O  O10  1  0.57815300  0.68939300  0.80043800  1
  O  O11  1  0.68939300  0.42184700  0.19956200  1
  O  O12  1  0.90314800  0.37944700  0.50356600  1
  O  O13  1  0.57329300  0.65226500  0.30434300  1
  O  O14  1  0.34773500  0.57329300  0.69565700  1
  O  O15  1  0.18939300  0.92184700  0.30043800  1
  O  O16  1  0.15226500  0.92670700  0.80434300  1
  O  O17  1  0.31060700  0.57815300  0.19956200  1
  O  O18  1  0.81060700  0.07815300  0.30043800  1
  O  O19  1  0.65226500  0.42670700  0.69565700  1
  O  O20  1  0.59685200  0.12055300  0.99643400  1
  O  O21  1  0.09685200  0.62055300  0.50356600  1
  O  O22  1  0.37944700  0.09685200  0.49643400  1
  O  O23  1  0.92184700  0.81060700  0.69956200  1
  O  O24  1  0.07815300  0.18939300  0.69956200  1
  O  O25  1  0.62055300  0.90314800  0.49643400  1
  O  O26  1  0.07329300  0.15226500  0.19565700  1
  O  O27  1  0.42670700  0.34773500  0.30434300  1
  O  O28  1  0.12055300  0.40314800  0.00356600  1
  O  O29  1  0.87944700  0.59685200  0.00356600  1
  O  O30  1  0.40314800  0.87944700  0.99643400  1
  O  O31  1  0.92670700  0.84773500  0.19565700  1
  O  O32  1  0.42184700  0.31060700  0.80043800  1
  O  O33  1  0.84773500  0.07329300  0.80434300  1
