# generated using pymatgen
data_Dy(CrS2)3
_symmetry_space_group_name_H-M   'P 1'
_cell_length_a   10.69544700
_cell_length_b   10.84985200
_cell_length_c   12.65206200
_cell_angle_alpha   90.00000000
_cell_angle_beta   90.00000000
_cell_angle_gamma   90.00000000
_symmetry_Int_Tables_number   1
_chemical_formula_structural   Dy(CrS2)3
_chemical_formula_sum   'Dy8 Cr24 S48'
_cell_volume   1468.19609811
_cell_formula_units_Z   8
loop_
 _symmetry_equiv_pos_site_id
 _symmetry_equiv_pos_as_xyz
  1  'x, y, z'
loop_
 _atom_site_type_symbol
 _atom_site_label
 _atom_site_symmetry_multiplicity
 _atom_site_fract_x
 _atom_site_fract_y
 _atom_site_fract_z
 _atom_site_occupancy
  Dy  Dy0  1  0.00000000  0.48948500  0.16469000  1
  Dy  Dy1  1  0.00000000  0.98762400  0.00017200  1
  Dy  Dy2  1  0.16651800  0.51712500  0.66287900  1
  Dy  Dy3  1  0.33348200  0.48287500  0.16287900  1
  Dy  Dy4  1  0.50000000  0.01237600  0.50017200  1
  Dy  Dy5  1  0.50000000  0.51051500  0.66469000  1
  Dy  Dy6  1  0.66651800  0.48287500  0.16287900  1
  Dy  Dy7  1  0.83348200  0.51712500  0.66287900  1
  Cr  Cr8  1  0.00000000  0.33192800  0.42649300  1
  Cr  Cr9  1  0.00000000  0.80578900  0.22384300  1
  Cr  Cr10  1  0.00000000  0.30187000  0.94348800  1
  Cr  Cr11  1  0.00000000  0.84498100  0.73628600  1
  Cr  Cr12  1  0.16719700  0.66494600  0.92775100  1
  Cr  Cr13  1  0.16386500  0.19029800  0.71266600  1
  Cr  Cr14  1  0.16430300  0.70820300  0.44763100  1
  Cr  Cr15  1  0.16447300  0.15423000  0.23913800  1
  Cr  Cr16  1  0.33552700  0.84577000  0.73913800  1
  Cr  Cr17  1  0.33569700  0.29179700  0.94763100  1
  Cr  Cr18  1  0.33613500  0.80970200  0.21266600  1
  Cr  Cr19  1  0.33280300  0.33505400  0.42775100  1
  Cr  Cr20  1  0.50000000  0.15501900  0.23628600  1
  Cr  Cr21  1  0.50000000  0.19421100  0.72384300  1
  Cr  Cr22  1  0.50000000  0.66807200  0.92649300  1
  Cr  Cr23  1  0.50000000  0.69813000  0.44348800  1
  Cr  Cr24  1  0.66719700  0.33505400  0.42775100  1
  Cr  Cr25  1  0.66386500  0.80970200  0.21266600  1
  Cr  Cr26  1  0.66430300  0.29179700  0.94763100  1
  Cr  Cr27  1  0.66447300  0.84577000  0.73913800  1
  Cr  Cr28  1  0.83552700  0.15423000  0.23913800  1
  Cr  Cr29  1  0.83569700  0.70820300  0.44763100  1
  Cr  Cr30  1  0.83613500  0.19029800  0.71266600  1
  Cr  Cr31  1  0.83280300  0.66494600  0.92775100  1
  S  S32  1  0.00000000  0.21145900  0.11900200  1
  S  S33  1  0.00000000  0.12790800  0.36224300  1
  S  S34  1  0.00000000  0.05332000  0.67042700  1
  S  S35  1  0.00000000  0.71357400  0.04469500  1
  S  S36  1  0.00000000  0.55404500  0.49398200  1
  S  S37  1  0.00000000  0.34238200  0.75725800  1
  S  S38  1  0.00000000  0.84158400  0.40479600  1
  S  S39  1  0.00000000  0.63360500  0.80032800  1
  S  S40  1  0.16558300  0.87070700  0.86379400  1
  S  S41  1  0.16603500  0.29777900  0.54623000  1
  S  S42  1  0.16306000  0.16200000  0.90069800  1
  S  S43  1  0.16721200  0.77560400  0.62404500  1
  S  S44  1  0.16337600  0.94582600  0.17298600  1
  S  S45  1  0.16549800  0.36476800  0.29873200  1
  S  S46  1  0.16734100  0.65613500  0.26026500  1
  S  S47  1  0.16492800  0.45012000  0.99643400  1
  S  S48  1  0.33507200  0.54988000  0.49643400  1
  S  S49  1  0.33265900  0.34386500  0.76026500  1
  S  S50  1  0.33450200  0.63523200  0.79873200  1
  S  S51  1  0.33662400  0.05417400  0.67298600  1
  S  S52  1  0.33278800  0.22439600  0.12404500  1
  S  S53  1  0.33694000  0.83800000  0.40069800  1
  S  S54  1  0.33396500  0.70222100  0.04623000  1
  S  S55  1  0.33441700  0.12929300  0.36379400  1
  S  S56  1  0.50000000  0.28642600  0.54469500  1
  S  S57  1  0.50000000  0.65761800  0.25725800  1
  S  S58  1  0.50000000  0.78854100  0.61900200  1
  S  S59  1  0.50000000  0.15841600  0.90479600  1
  S  S60  1  0.50000000  0.36639500  0.30032800  1
  S  S61  1  0.50000000  0.44595500  0.99398200  1
  S  S62  1  0.50000000  0.94668000  0.17042700  1
  S  S63  1  0.50000000  0.87209200  0.86224300  1
  S  S64  1  0.66558300  0.12929300  0.36379400  1
  S  S65  1  0.66603500  0.70222100  0.04623000  1
  S  S66  1  0.66306000  0.83800000  0.40069800  1
  S  S67  1  0.66721200  0.22439600  0.12404500  1
  S  S68  1  0.66337600  0.05417400  0.67298600  1
  S  S69  1  0.66549800  0.63523200  0.79873200  1
  S  S70  1  0.66734100  0.34386500  0.76026500  1
  S  S71  1  0.66492800  0.54988000  0.49643400  1
  S  S72  1  0.83507200  0.45012000  0.99643400  1
  S  S73  1  0.83265900  0.65613500  0.26026500  1
  S  S74  1  0.83450200  0.36476800  0.29873200  1
  S  S75  1  0.83662400  0.94582600  0.17298600  1
  S  S76  1  0.83278800  0.77560400  0.62404500  1
  S  S77  1  0.83694000  0.16200000  0.90069800  1
  S  S78  1  0.83396500  0.29777900  0.54623000  1
  S  S79  1  0.83441700  0.87070700  0.86379400  1
