# generated using pymatgen
data_NaMo2P3O13
_symmetry_space_group_name_H-M   'P 1'
_cell_length_a   6.46516900
_cell_length_b   7.58691729
_cell_length_c   11.35779669
_cell_angle_alpha   75.44815473
_cell_angle_beta   85.34279953
_cell_angle_gamma   79.38509981
_symmetry_Int_Tables_number   1
_chemical_formula_structural   NaMo2P3O13
_chemical_formula_sum   'Na2 Mo4 P6 O26'
_cell_volume   529.65159999
_cell_formula_units_Z   2
loop_
 _symmetry_equiv_pos_site_id
 _symmetry_equiv_pos_as_xyz
  1  'x, y, z'
loop_
 _atom_site_type_symbol
 _atom_site_label
 _atom_site_symmetry_multiplicity
 _atom_site_fract_x
 _atom_site_fract_y
 _atom_site_fract_z
 _atom_site_occupancy
  Na  Na0  1  0.32091900  0.58644400  0.77130400  1
  Na  Na1  1  0.67908100  0.41355600  0.22869600  1
  Mo  Mo2  1  0.78267100  0.79454500  0.90982100  1
  Mo  Mo3  1  0.23944600  0.19554200  0.59607300  1
  Mo  Mo4  1  0.21732900  0.20545500  0.09017900  1
  Mo  Mo5  1  0.76055400  0.80445800  0.40392700  1
  P  P6  1  0.87868500  0.53061600  0.68795800  1
  P  P7  1  0.26303300  0.93284900  0.88893200  1
  P  P8  1  0.73803800  0.20370000  0.66476800  1
  P  P9  1  0.26196200  0.79630000  0.33523200  1
  P  P10  1  0.12131500  0.46938400  0.31204200  1
  P  P11  1  0.73696700  0.06715100  0.11106800  1
  O  O12  1  0.89365500  0.54142800  0.34632700  1
  O  O13  1  0.07782300  0.78481600  0.42978000  1
  O  O14  1  0.24687800  0.64233200  0.25941100  1
  O  O15  1  0.52737600  0.19600900  0.13243400  1
  O  O16  1  0.26792600  0.98747800  0.00986500  1
  O  O17  1  0.09702100  0.80613000  0.89407000  1
  O  O18  1  0.47385900  0.72889300  0.39666400  1
  O  O19  1  0.31031100  0.97401500  0.58187200  1
  O  O20  1  0.22065800  0.10787500  0.78453100  1
  O  O21  1  0.74799600  0.65527200  0.58178000  1
  O  O22  1  0.90297900  0.19387000  0.10593000  1
  O  O23  1  0.47262400  0.80399100  0.86756600  1
  O  O24  1  0.25200400  0.34472800  0.41822000  1
  O  O25  1  0.13127700  0.38029800  0.20549200  1
  O  O26  1  0.24524000  0.98308400  0.24796400  1
  O  O27  1  0.92217700  0.21518400  0.57022000  1
  O  O28  1  0.76425400  0.63066300  0.04387400  1
  O  O29  1  0.75312200  0.35766800  0.74058900  1
  O  O30  1  0.77934200  0.89212500  0.21546900  1
  O  O31  1  0.75476000  0.01691600  0.75203600  1
  O  O32  1  0.23574600  0.36933700  0.95612600  1
  O  O33  1  0.10634500  0.45857200  0.65367300  1
  O  O34  1  0.52614100  0.27110700  0.60333600  1
  O  O35  1  0.86872300  0.61970200  0.79450800  1
  O  O36  1  0.68968900  0.02598500  0.41812800  1
  O  O37  1  0.73207400  0.01252200  0.99013500  1
