# generated using pymatgen
data_BaVS3
_symmetry_space_group_name_H-M   'P 1'
_cell_length_a   6.80201132
_cell_length_b   6.80201132
_cell_length_c   5.63223300
_cell_angle_alpha   90.00000000
_cell_angle_beta   90.00000000
_cell_angle_gamma   120.49463035
_symmetry_Int_Tables_number   1
_chemical_formula_structural   BaVS3
_chemical_formula_sum   'Ba2 V2 S6'
_cell_volume   224.54307978
_cell_formula_units_Z   2
loop_
 _symmetry_equiv_pos_site_id
 _symmetry_equiv_pos_as_xyz
  1  'x, y, z'
loop_
 _atom_site_type_symbol
 _atom_site_label
 _atom_site_symmetry_multiplicity
 _atom_site_fract_x
 _atom_site_fract_y
 _atom_site_fract_z
 _atom_site_occupancy
  Ba  Ba0  1  0.33129100  0.66870900  0.25000000  1
  Ba  Ba1  1  0.66870900  0.33129100  0.75000000  1
  V  V2  1  0.96110500  0.96110500  0.50000000  1
  V  V3  1  0.03889500  0.03889500  0.00000000  1
  S  S4  1  0.83903200  0.16096800  0.25000000  1
  S  S5  1  0.16610600  0.32926500  0.73856700  1
  S  S6  1  0.16096800  0.83903200  0.75000000  1
  S  S7  1  0.67073500  0.83389400  0.76143300  1
  S  S8  1  0.83389400  0.67073500  0.23856700  1
  S  S9  1  0.32926500  0.16610600  0.26143300  1
