# generated using pymatgen
data_W8O21
_symmetry_space_group_name_H-M   'P 1'
_cell_length_a   3.85741600
_cell_length_b   18.42037700
_cell_length_c   21.94028800
_cell_angle_alpha   90.00000000
_cell_angle_beta   90.00000000
_cell_angle_gamma   90.00000000
_symmetry_Int_Tables_number   1
_chemical_formula_structural   W8O21
_chemical_formula_sum   'W32 O84'
_cell_volume   1558.96841369
_cell_formula_units_Z   4
loop_
 _symmetry_equiv_pos_site_id
 _symmetry_equiv_pos_as_xyz
  1  'x, y, z'
loop_
 _atom_site_type_symbol
 _atom_site_label
 _atom_site_symmetry_multiplicity
 _atom_site_fract_x
 _atom_site_fract_y
 _atom_site_fract_z
 _atom_site_occupancy
  W  W0  1  0.00000000  0.41105200  0.27365300  1
  W  W1  1  0.00000000  0.91105200  0.22634700  1
  W  W2  1  0.00000000  0.90997900  0.75356800  1
  W  W3  1  0.00000000  0.14516400  0.94238400  1
  W  W4  1  0.00000000  0.64516400  0.55761600  1
  W  W5  1  0.00000000  0.77736000  0.65250500  1
  W  W6  1  0.00000000  0.85483600  0.05761600  1
  W  W7  1  0.00000000  0.34140900  0.01312000  1
  W  W8  1  0.00000000  0.08894800  0.77365300  1
  W  W9  1  0.00000000  0.55719300  0.40436700  1
  W  W10  1  0.00000000  0.58894800  0.72634700  1
  W  W11  1  0.00000000  0.65859100  0.98688000  1
  W  W12  1  0.00000000  0.98725600  0.61309200  1
  W  W13  1  0.00000000  0.25188800  0.66718800  1
  W  W14  1  0.00000000  0.09002100  0.24643200  1
  W  W15  1  0.00000000  0.51274400  0.11309200  1
  W  W16  1  0.00000000  0.44280700  0.59563300  1
  W  W17  1  0.00000000  0.27736000  0.84749500  1
  W  W18  1  0.00000000  0.74811200  0.33281200  1
  W  W19  1  0.00000000  0.35483600  0.44238400  1
  W  W20  1  0.00000000  0.94280700  0.90436700  1
  W  W21  1  0.00000000  0.72264000  0.15250500  1
  W  W22  1  0.00000000  0.22264000  0.34749500  1
  W  W23  1  0.00000000  0.24811200  0.16718800  1
  W  W24  1  0.00000000  0.01274400  0.38690800  1
  W  W25  1  0.00000000  0.84140900  0.48688000  1
  W  W26  1  0.00000000  0.15859100  0.51312000  1
  W  W27  1  0.00000000  0.48725600  0.88690800  1
  W  W28  1  0.00000000  0.05719300  0.09563300  1
  W  W29  1  0.00000000  0.40997900  0.74643200  1
  W  W30  1  0.00000000  0.59002100  0.25356800  1
  W  W31  1  0.00000000  0.75188800  0.83281200  1
  O  O32  1  0.00000000  0.99080500  0.81888000  1
  O  O33  1  0.00000000  0.57468900  0.04748000  1
  O  O34  1  0.00000000  0.26016700  0.94138100  1
  O  O35  1  0.00000000  0.33562900  0.20825800  1
  O  O36  1  0.00000000  0.53548500  0.56436900  1
  O  O37  1  0.50000000  0.51213200  0.11935200  1
  O  O38  1  0.50000000  0.08985700  0.24603500  1
  O  O39  1  0.50000000  0.44100900  0.59882100  1
  O  O40  1  0.00000000  0.36228700  0.66020800  1
  O  O41  1  0.00000000  0.49080500  0.68112000  1
  O  O42  1  0.00000000  0.27160900  0.08542200  1
  O  O43  1  0.00000000  0.16437100  0.70825800  1
  O  O44  1  0.50000000  0.75676300  0.83082100  1
  O  O45  1  0.50000000  0.27719400  0.84770400  1
  O  O46  1  0.00000000  0.79833800  0.74414800  1
  O  O47  1  0.50000000  0.14618600  0.94142000  1
  O  O48  1  0.50000000  0.74323700  0.33082100  1
  O  O49  1  0.50000000  0.22280600  0.34770400  1
  O  O50  1  0.00000000  0.87606500  0.96789000  1
  O  O51  1  0.00000000  0.37606500  0.53211000  1
  O  O52  1  0.50000000  0.55899100  0.40117900  1
  O  O53  1  0.00000000  0.77160900  0.41457800  1
  O  O54  1  0.00000000  0.92128200  0.42246700  1
  O  O55  1  0.50000000  0.94100900  0.90117900  1
  O  O56  1  0.00000000  0.83562900  0.29174200  1
  O  O57  1  0.00000000  0.42128200  0.07753300  1
  O  O58  1  0.00000000  0.73983300  0.05861900  1
  O  O59  1  0.50000000  0.72280600  0.15229600  1
  O  O60  1  0.50000000  0.40944400  0.27671400  1
  O  O61  1  0.00000000  0.00956700  0.70718500  1
  O  O62  1  0.00000000  0.13771300  0.16020800  1
  O  O63  1  0.50000000  0.25676300  0.66917900  1
  O  O64  1  0.50000000  0.01213200  0.38064800  1
  O  O65  1  0.00000000  0.12393500  0.03211000  1
  O  O66  1  0.50000000  0.24323700  0.16917900  1
  O  O67  1  0.50000000  0.48786800  0.88064800  1
  O  O68  1  0.50000000  0.58985700  0.25396500  1
  O  O69  1  0.00000000  0.62393500  0.46789000  1
  O  O70  1  0.00000000  0.88823400  0.66230600  1
  O  O71  1  0.50000000  0.64618600  0.55858000  1
  O  O72  1  0.50000000  0.85381400  0.05858000  1
  O  O73  1  0.00000000  0.86228700  0.83979200  1
  O  O74  1  0.00000000  0.22839100  0.58542200  1
  O  O75  1  0.00000000  0.29833800  0.75585200  1
  O  O76  1  0.50000000  0.16104100  0.51116800  1
  O  O77  1  0.00000000  0.66433200  0.65247000  1
  O  O78  1  0.50000000  0.41014300  0.74603500  1
  O  O79  1  0.00000000  0.00919500  0.18112000  1
  O  O80  1  0.50000000  0.33895900  0.01116800  1
  O  O81  1  0.00000000  0.57871800  0.92246700  1
  O  O82  1  0.50000000  0.90944400  0.22328600  1
  O  O83  1  0.00000000  0.07871800  0.57753300  1
  O  O84  1  0.00000000  0.42531100  0.95252000  1
  O  O85  1  0.00000000  0.92531100  0.54748000  1
  O  O86  1  0.50000000  0.77719400  0.65229600  1
  O  O87  1  0.00000000  0.38823400  0.83769400  1
  O  O88  1  0.50000000  0.09055600  0.77671400  1
  O  O89  1  0.00000000  0.07468900  0.45252000  1
  O  O90  1  0.00000000  0.16433200  0.84753000  1
  O  O91  1  0.00000000  0.33566800  0.34753000  1
  O  O92  1  0.00000000  0.66437100  0.79174200  1
  O  O93  1  0.00000000  0.50919500  0.31888000  1
  O  O94  1  0.00000000  0.99043300  0.29281500  1
  O  O95  1  0.00000000  0.72839100  0.91457800  1
  O  O96  1  0.00000000  0.63771300  0.33979200  1
  O  O97  1  0.00000000  0.83566800  0.15247000  1
  O  O98  1  0.00000000  0.11176600  0.33769400  1
  O  O99  1  0.00000000  0.23983300  0.44138100  1
  O  O100  1  0.00000000  0.70166200  0.24414800  1
  O  O101  1  0.50000000  0.66104100  0.98883200  1
  O  O102  1  0.50000000  0.98786800  0.61935200  1
  O  O103  1  0.50000000  0.83895900  0.48883200  1
  O  O104  1  0.00000000  0.03548500  0.93563100  1
  O  O105  1  0.00000000  0.50956700  0.79281500  1
  O  O106  1  0.00000000  0.46451500  0.43563100  1
  O  O107  1  0.50000000  0.35381400  0.44142000  1
  O  O108  1  0.00000000  0.61176600  0.16230600  1
  O  O109  1  0.00000000  0.20166200  0.25585200  1
  O  O110  1  0.00000000  0.76016700  0.55861900  1
  O  O111  1  0.00000000  0.49043300  0.20718500  1
  O  O112  1  0.00000000  0.96451500  0.06436900  1
  O  O113  1  0.50000000  0.05899100  0.09882100  1
  O  O114  1  0.50000000  0.91014300  0.75396500  1
  O  O115  1  0.50000000  0.59055600  0.72328600  1
