# generated using pymatgen
data_Er2CoSi2
_symmetry_space_group_name_H-M   'P 1'
_cell_length_a   5.53542161
_cell_length_b   5.53542161
_cell_length_c   9.90368013
_cell_angle_alpha   63.37385559
_cell_angle_beta   63.37385559
_cell_angle_gamma   43.62683352
_symmetry_Int_Tables_number   1
_chemical_formula_structural   Er2CoSi2
_chemical_formula_sum   'Er4 Co2 Si4'
_cell_volume   183.36245998
_cell_formula_units_Z   2
loop_
 _symmetry_equiv_pos_site_id
 _symmetry_equiv_pos_as_xyz
  1  'x, y, z'
loop_
 _atom_site_type_symbol
 _atom_site_label
 _atom_site_symmetry_multiplicity
 _atom_site_fract_x
 _atom_site_fract_y
 _atom_site_fract_z
 _atom_site_occupancy
  Er  Er0  1  0.99840500  0.99840500  0.32908800  1
  Er  Er1  1  0.18690200  0.18690200  0.89140800  1
  Er  Er2  1  0.00159500  0.00159500  0.67091200  1
  Er  Er3  1  0.81309800  0.81309800  0.10859200  1
  Co  Co4  1  0.27373000  0.27373000  0.37263200  1
  Co  Co5  1  0.72627000  0.72627000  0.62736800  1
  Si  Si6  1  0.50773700  0.50773700  0.12443900  1
  Si  Si7  1  0.49226300  0.49226300  0.87556100  1
  Si  Si8  1  0.35061000  0.35061000  0.56553600  1
  Si  Si9  1  0.64939000  0.64939000  0.43446400  1
