# generated using pymatgen
data_K2CuP2O7
_symmetry_space_group_name_H-M   'P 1'
_cell_length_a   5.30928900
_cell_length_b   9.81976300
_cell_length_c   14.65153500
_cell_angle_alpha   90.00000000
_cell_angle_beta   90.00000000
_cell_angle_gamma   90.00000000
_symmetry_Int_Tables_number   1
_chemical_formula_structural   K2CuP2O7
_chemical_formula_sum   'K8 Cu4 P8 O28'
_cell_volume   763.87183799
_cell_formula_units_Z   4
loop_
 _symmetry_equiv_pos_site_id
 _symmetry_equiv_pos_as_xyz
  1  'x, y, z'
loop_
 _atom_site_type_symbol
 _atom_site_label
 _atom_site_symmetry_multiplicity
 _atom_site_fract_x
 _atom_site_fract_y
 _atom_site_fract_z
 _atom_site_occupancy
  K  K0  1  0.75000000  0.37383400  0.30260300  1
  K  K1  1  0.25000000  0.62616600  0.69739700  1
  K  K2  1  0.75000000  0.62824400  0.08938600  1
  K  K3  1  0.75000000  0.87175600  0.58938600  1
  K  K4  1  0.75000000  0.12616600  0.80260300  1
  K  K5  1  0.25000000  0.87383400  0.19739700  1
  K  K6  1  0.25000000  0.37175600  0.91061400  1
  K  K7  1  0.25000000  0.12824400  0.41061400  1
  Cu  Cu8  1  0.25000000  0.24711100  0.16881200  1
  Cu  Cu9  1  0.25000000  0.25288900  0.66881200  1
  Cu  Cu10  1  0.75000000  0.75288900  0.83118800  1
  Cu  Cu11  1  0.75000000  0.74711100  0.33118800  1
  P  P12  1  0.25000000  0.72731400  0.94542200  1
  P  P13  1  0.25000000  0.77268600  0.44542200  1
  P  P14  1  0.75000000  0.07147600  0.19432900  1
  P  P15  1  0.25000000  0.57147600  0.30567100  1
  P  P16  1  0.75000000  0.22731400  0.55457800  1
  P  P17  1  0.75000000  0.27268600  0.05457800  1
  P  P18  1  0.25000000  0.92852400  0.80567100  1
  P  P19  1  0.75000000  0.42852400  0.69432900  1
  O  O20  1  0.75000000  0.58241600  0.69859800  1
  O  O21  1  0.25000000  0.72500900  0.04815200  1
  O  O22  1  0.51148100  0.16060000  0.59675600  1
  O  O23  1  0.25000000  0.88796700  0.91411400  1
  O  O24  1  0.25000000  0.08241600  0.80140200  1
  O  O25  1  0.99188900  0.13643200  0.23501900  1
  O  O26  1  0.50811100  0.13643200  0.23501900  1
  O  O27  1  0.00811100  0.63643200  0.26498100  1
  O  O28  1  0.98851900  0.33940000  0.09675600  1
  O  O29  1  0.25000000  0.77499100  0.54815200  1
  O  O30  1  0.50811100  0.36356800  0.73501900  1
  O  O31  1  0.75000000  0.91758400  0.19859800  1
  O  O32  1  0.99188900  0.36356800  0.73501900  1
  O  O33  1  0.51148100  0.33940000  0.09675600  1
  O  O34  1  0.75000000  0.22500900  0.45184800  1
  O  O35  1  0.48851900  0.83940000  0.40324400  1
  O  O36  1  0.75000000  0.27499100  0.95184800  1
  O  O37  1  0.25000000  0.41758400  0.30140200  1
  O  O38  1  0.25000000  0.61203300  0.41411400  1
  O  O39  1  0.01148100  0.83940000  0.40324400  1
  O  O40  1  0.98851900  0.16060000  0.59675600  1
  O  O41  1  0.75000000  0.38796700  0.58588600  1
  O  O42  1  0.00811100  0.86356800  0.76498100  1
  O  O43  1  0.48851900  0.66060000  0.90324400  1
  O  O44  1  0.49188900  0.63643200  0.26498100  1
  O  O45  1  0.01148100  0.66060000  0.90324400  1
  O  O46  1  0.49188900  0.86356800  0.76498100  1
  O  O47  1  0.75000000  0.11203300  0.08588600  1
