# generated using pymatgen
data_Li4WO5
_symmetry_space_group_name_H-M   'P 1'
_cell_length_a   5.15544788
_cell_length_b   5.19143332
_cell_length_c   7.90342631
_cell_angle_alpha   102.37561461
_cell_angle_beta   108.70920226
_cell_angle_gamma   101.43211930
_symmetry_Int_Tables_number   1
_chemical_formula_structural   Li4WO5
_chemical_formula_sum   'Li8 W2 O10'
_cell_volume   187.37170728
_cell_formula_units_Z   2
loop_
 _symmetry_equiv_pos_site_id
 _symmetry_equiv_pos_as_xyz
  1  'x, y, z'
loop_
 _atom_site_type_symbol
 _atom_site_label
 _atom_site_symmetry_multiplicity
 _atom_site_fract_x
 _atom_site_fract_y
 _atom_site_fract_z
 _atom_site_occupancy
  Li  Li0  1  0.69316815  0.00623506  0.39126307  1
  Li  Li1  1  0.32456681  0.50459814  0.10088524  1
  Li  Li2  1  0.12546706  0.49811578  0.69243182  1
  Li  Li3  1  0.50000000  -0.00000000  -0.00000000  1
  Li  Li4  1  0.67543319  0.49540186  0.89911476  1
  Li  Li5  1  0.87453294  0.50188422  0.30756818  1
  Li  Li6  1  0.30683185  0.99376494  0.60873693  1
  Li  Li7  1  0.50000000  0.50000000  0.50000000  1
  W  W8  1  0.89327146  0.99959221  0.78394885  1
  W  W9  1  0.10672854  0.00040779  0.21605115  1
  O  O10  1  0.28298864  0.76902904  0.33480310  1
  O  O11  1  0.47114746  0.24036414  0.24992057  1
  O  O12  1  0.52885254  0.75963586  0.75007943  1
  O  O13  1  0.72737471  0.76417046  0.15494867  1
  O  O14  1  0.71701136  0.23097096  0.66519690  1
  O  O15  1  0.91048720  0.21515000  0.04153497  1
  O  O16  1  0.09359277  0.24116350  0.42805891  1
  O  O17  1  0.08951280  0.78485000  0.95846503  1
  O  O18  1  0.27262529  0.23582954  0.84505133  1
  O  O19  1  0.90640723  0.75883650  0.57194109  1
