# generated using pymatgen
data_SrU(SeO4)2
_symmetry_space_group_name_H-M   'P 1'
_cell_length_a   5.81231554
_cell_length_b   6.88887030
_cell_length_c   11.47307514
_cell_angle_alpha   104.76538182
_cell_angle_beta   94.04440200
_cell_angle_gamma   109.42835871
_symmetry_Int_Tables_number   1
_chemical_formula_structural   SrU(SeO4)2
_chemical_formula_sum   'Sr2 U2 Se4 O16'
_cell_volume   412.80094035
_cell_formula_units_Z   2
loop_
 _symmetry_equiv_pos_site_id
 _symmetry_equiv_pos_as_xyz
  1  'x, y, z'
loop_
 _atom_site_type_symbol
 _atom_site_label
 _atom_site_symmetry_multiplicity
 _atom_site_fract_x
 _atom_site_fract_y
 _atom_site_fract_z
 _atom_site_occupancy
  Sr  Sr0  1  0.33192646  0.75126520  0.56254769  1
  Sr  Sr1  1  0.66807354  0.24873480  0.43745231  1
  U  U2  1  0.16893151  0.26265642  0.16320381  1
  U  U3  1  0.83106849  0.73734358  0.83679619  1
  Se  Se4  1  0.69866679  0.19108998  0.87767135  1
  Se  Se5  1  0.72751663  0.69176595  0.34168873  1
  Se  Se6  1  0.30133321  0.80891002  0.12232865  1
  Se  Se7  1  0.27248337  0.30823405  0.65831127  1
  O  O8  1  0.09315909  0.86511175  0.02969157  1
  O  O9  1  0.11941301  0.58341205  0.15765905  1
  O  O10  1  0.56277090  0.66531177  0.91095172  1
  O  O11  1  0.43722910  0.33468823  0.08904828  1
  O  O12  1  0.91983566  0.62205211  0.42684466  1
  O  O13  1  0.68145341  0.97996457  0.75273620  1
  O  O14  1  0.09568539  0.81004926  0.75704686  1
  O  O15  1  0.67444433  0.89404655  0.44253204  1
  O  O16  1  0.90431461  0.18995074  0.24295314  1
  O  O17  1  0.90684091  0.13488825  0.97030843  1
  O  O18  1  0.08016434  0.37794789  0.57315534  1
  O  O19  1  0.31854659  0.02003543  0.24726380  1
  O  O20  1  0.32555567  0.10595345  0.55746796  1
  O  O21  1  0.55965381  0.52132395  0.65858760  1
  O  O22  1  0.44034619  0.47867605  0.34141240  1
  O  O23  1  0.88058699  0.41658795  0.84234095  1
