# generated using pymatgen
data_Pr23Mg4Ni7
_symmetry_space_group_name_H-M   'P 1'
_cell_length_a   10.03246291
_cell_length_b   10.03246291
_cell_length_c   22.75326000
_cell_angle_alpha   90.00000000
_cell_angle_beta   90.00000000
_cell_angle_gamma   120.00000597
_symmetry_Int_Tables_number   1
_chemical_formula_structural   Pr23Mg4Ni7
_chemical_formula_sum   'Pr46 Mg8 Ni14'
_cell_volume   1983.30433125
_cell_formula_units_Z   2
loop_
 _symmetry_equiv_pos_site_id
 _symmetry_equiv_pos_as_xyz
  1  'x, y, z'
loop_
 _atom_site_type_symbol
 _atom_site_label
 _atom_site_symmetry_multiplicity
 _atom_site_fract_x
 _atom_site_fract_y
 _atom_site_fract_z
 _atom_site_occupancy
  Pr  Pr0  1  0.79281100  0.20718900  0.94833300  1
  Pr  Pr1  1  0.07905400  0.53952700  0.58659100  1
  Pr  Pr2  1  0.41437700  0.20718900  0.94833300  1
  Pr  Pr3  1  0.66666700  0.33333300  0.64532400  1
  Pr  Pr4  1  0.79281100  0.58562300  0.94833300  1
  Pr  Pr5  1  0.92094600  0.46047300  0.08659100  1
  Pr  Pr6  1  0.79325200  0.20674800  0.21989500  1
  Pr  Pr7  1  0.20674800  0.79325200  0.71989500  1
  Pr  Pr8  1  0.21187100  0.42374200  0.99249100  1
  Pr  Pr9  1  0.20674800  0.41349600  0.71989500  1
  Pr  Pr10  1  0.87210300  0.74420600  0.63311300  1
  Pr  Pr11  1  0.12789700  0.87210300  0.13311300  1
  Pr  Pr12  1  0.08619700  0.54309800  0.85654700  1
  Pr  Pr13  1  0.25579400  0.12789700  0.63311300  1
  Pr  Pr14  1  0.00000000  0.00000000  0.99843400  1
  Pr  Pr15  1  0.20718900  0.41437700  0.44833300  1
  Pr  Pr16  1  0.58650400  0.79325200  0.71989500  1
  Pr  Pr17  1  0.57625800  0.78812900  0.99249100  1
  Pr  Pr18  1  0.79325200  0.58650400  0.21989500  1
  Pr  Pr19  1  0.20512200  0.79487800  0.28216700  1
  Pr  Pr20  1  0.79487800  0.20512200  0.78216700  1
  Pr  Pr21  1  0.79487800  0.58975600  0.78216700  1
  Pr  Pr22  1  0.45690200  0.54309800  0.85654700  1
  Pr  Pr23  1  0.00000000  0.00000000  0.49843400  1
  Pr  Pr24  1  0.74420600  0.87210300  0.13311300  1
  Pr  Pr25  1  0.78812900  0.21187100  0.49249100  1
  Pr  Pr26  1  0.12789700  0.25579400  0.13311300  1
  Pr  Pr27  1  0.53952700  0.46047300  0.08659100  1
  Pr  Pr28  1  0.33333300  0.66666700  0.14532400  1
  Pr  Pr29  1  0.45690200  0.91380300  0.85654700  1
  Pr  Pr30  1  0.20718900  0.79281100  0.44833300  1
  Pr  Pr31  1  0.91380300  0.45690200  0.35654700  1
  Pr  Pr32  1  0.42374200  0.21187100  0.49249100  1
  Pr  Pr33  1  0.21187100  0.78812900  0.99249100  1
  Pr  Pr34  1  0.54309800  0.08619700  0.35654700  1
  Pr  Pr35  1  0.46047300  0.92094600  0.58659100  1
  Pr  Pr36  1  0.54309800  0.45690200  0.35654700  1
  Pr  Pr37  1  0.58562300  0.79281100  0.44833300  1
  Pr  Pr38  1  0.46047300  0.53952700  0.58659100  1
  Pr  Pr39  1  0.41349600  0.20674800  0.21989500  1
  Pr  Pr40  1  0.20512200  0.41024400  0.28216700  1
  Pr  Pr41  1  0.41024400  0.20512200  0.78216700  1
  Pr  Pr42  1  0.58975600  0.79487800  0.28216700  1
  Pr  Pr43  1  0.87210300  0.12789700  0.63311300  1
  Pr  Pr44  1  0.78812900  0.57625800  0.49249100  1
  Pr  Pr45  1  0.53952700  0.07905400  0.08659100  1
  Mg  Mg46  1  0.89449900  0.78899800  0.36341800  1
  Mg  Mg47  1  0.00000000  0.00000000  0.74980100  1
  Mg  Mg48  1  0.21100200  0.10550100  0.36341800  1
  Mg  Mg49  1  0.78899800  0.89449900  0.86341800  1
  Mg  Mg50  1  0.89449900  0.10550100  0.36341800  1
  Mg  Mg51  1  0.10550100  0.21100200  0.86341800  1
  Mg  Mg52  1  0.00000000  0.00000000  0.24980100  1
  Mg  Mg53  1  0.10550100  0.89449900  0.86341800  1
  Ni  Ni54  1  0.28539700  0.14269900  0.06361900  1
  Ni  Ni55  1  0.33333300  0.66666700  0.36287900  1
  Ni  Ni56  1  0.47874600  0.52125400  0.21120600  1
  Ni  Ni57  1  0.85730100  0.71460300  0.06361900  1
  Ni  Ni58  1  0.14269900  0.28539700  0.56361900  1
  Ni  Ni59  1  0.04250800  0.52125400  0.21120600  1
  Ni  Ni60  1  0.14269900  0.85730100  0.56361900  1
  Ni  Ni61  1  0.66666700  0.33333300  0.86287900  1
  Ni  Ni62  1  0.85730100  0.14269900  0.06361900  1
  Ni  Ni63  1  0.71460300  0.85730100  0.56361900  1
  Ni  Ni64  1  0.52125400  0.04250800  0.71120600  1
  Ni  Ni65  1  0.95749200  0.47874600  0.71120600  1
  Ni  Ni66  1  0.52125400  0.47874600  0.71120600  1
  Ni  Ni67  1  0.47874600  0.95749200  0.21120600  1
