# generated using pymatgen
data_Na3Zr2Si2PO12
_symmetry_space_group_name_H-M   'P 1'
_cell_length_a   9.15342773
_cell_length_b   18.31852334
_cell_length_c   9.31654062
_cell_angle_alpha   61.44819704
_cell_angle_beta   61.40951603
_cell_angle_gamma   60.20714928
_symmetry_Int_Tables_number   1
_chemical_formula_structural   Na3Zr2Si2PO12
_chemical_formula_sum   'Na12 Zr8 Si8 P4 O48'
_cell_volume   1129.70843640
_cell_formula_units_Z   4
loop_
 _symmetry_equiv_pos_site_id
 _symmetry_equiv_pos_as_xyz
  1  'x, y, z'
loop_
 _atom_site_type_symbol
 _atom_site_label
 _atom_site_symmetry_multiplicity
 _atom_site_fract_x
 _atom_site_fract_y
 _atom_site_fract_z
 _atom_site_occupancy
  Na  Na0  1  0.05211352  0.15655484  0.92172842  1
  Na  Na1  1  0.34112102  0.01972596  0.44038953  1
  Na  Na2  1  0.60713441  0.19301324  0.25819425  1
  Na  Na3  1  0.39454782  0.30385450  0.74833840  1
  Na  Na4  1  0.31044554  0.52675258  0.41534299  1
  Na  Na5  1  0.05340153  0.65578921  0.91856451  1
  Na  Na6  1  0.94438687  0.34644011  0.08324471  1
  Na  Na7  1  0.69081651  0.47339594  0.58130057  1
  Na  Na8  1  0.60872473  0.69606379  0.25004938  1
  Na  Na9  1  0.39342197  0.80072533  0.75796913  1
  Na  Na10  1  0.94259876  0.84964369  0.09077296  1
  Na  Na11  1  0.72923112  0.96057148  0.63712124  1
  Zr  Zr12  1  0.15359722  0.32280568  0.55606620  1
  Zr  Zr13  1  0.64458305  0.07750713  0.05771362  1
  Zr  Zr14  1  0.35675772  0.42330867  0.94196719  1
  Zr  Zr15  1  0.85098573  0.17729478  0.44156870  1
  Zr  Zr16  1  0.15839898  0.82199521  0.55457863  1
  Zr  Zr17  1  0.64780806  0.57604547  0.05601787  1
  Zr  Zr18  1  0.35445450  0.92368689  0.94506287  1
  Zr  Zr19  1  0.84759452  0.67754374  0.44291169  1
  Si  Si20  1  0.24861683  0.23596227  0.23544623  1
  Si  Si21  1  0.47150081  0.12386636  0.73857483  1
  Si  Si22  1  0.53020719  0.37587099  0.26250327  1
  Si  Si23  1  0.24956009  0.73476320  0.23715762  1
  Si  Si24  1  0.75340542  0.26451367  0.76297152  1
  Si  Si25  1  0.47213961  0.62375427  0.73670124  1
  Si  Si26  1  0.53071288  0.87621056  0.26435197  1
  Si  Si27  1  0.75414722  0.76455709  0.76246959  1
  P  P28  1  0.04413005  0.47876085  0.74885970  1
  P  P29  1  0.95681517  0.02078752  0.25033773  1
  P  P30  1  0.04320018  0.97963941  0.74718056  1
  P  P31  1  0.95900548  0.52125269  0.24923551  1
  O  O32  1  0.10916390  0.00299433  0.08443630  1
  O  O33  1  0.01533040  0.05542767  0.57951402  1
  O  O34  1  0.06842522  0.21761208  0.29111307  1
  O  O35  1  0.26224144  0.31673591  0.05104020  1
  O  O36  1  0.11010316  0.50245196  0.08423668  1
  O  O37  1  0.42280533  0.14431952  0.22436645  1
  O  O38  1  0.24607590  0.26374077  0.38064167  1
  O  O39  1  0.06190019  0.38940489  0.75067760  1
  O  O40  1  0.29122161  0.21147217  0.71899630  1
  O  O41  1  0.00555959  0.55450772  0.58457441  1
  O  O42  1  0.43081190  0.03424192  0.79804957  1
  O  O43  1  0.47510704  0.37760924  0.11675635  1
  O  O44  1  0.07100062  0.71407705  0.29672662  1
  O  O45  1  0.78039836  0.02965311  0.24851153  1
  O  O46  1  0.36604058  0.37173342  0.44533057  1
  O  O47  1  0.63984672  0.12649539  0.55927475  1
  O  O48  1  0.22311305  0.46966466  0.74677855  1
  O  O49  1  0.52184865  0.12397033  0.88562333  1
  O  O50  1  0.25790872  0.81691940  0.05518238  1
  O  O51  1  0.57500414  0.46424823  0.20342028  1
  O  O52  1  0.71009754  0.28746637  0.27962591  1
  O  O53  1  0.42491874  0.64425830  0.22016899  1
  O  O54  1  0.93676005  0.11026403  0.25026043  1
  O  O55  1  0.25046286  0.76145005  0.38196643  1
  O  O56  1  0.75674875  0.23618844  0.61831071  1
  O  O57  1  0.05300117  0.89223400  0.74774880  1
  O  O58  1  0.57864378  0.35583842  0.77598065  1
  O  O59  1  0.88994774  0.00030930  0.90965950  1
  O  O60  1  0.28977594  0.71148904  0.72303594  1
  O  O61  1  0.43007206  0.53506135  0.79425711  1
  O  O62  1  0.74099921  0.18373423  0.94735792  1
  O  O63  1  0.47262264  0.87802942  0.12052715  1
  O  O64  1  0.77972626  0.53073310  0.25083383  1
  O  O65  1  0.36986451  0.86968933  0.44980334  1
  O  O66  1  0.63448078  0.62950399  0.55273373  1
  O  O67  1  0.22293895  0.96577399  0.75210421  1
  O  O68  1  0.93139696  0.28547889  0.70533854  1
  O  O69  1  0.52782528  0.62297657  0.88112752  1
  O  O70  1  0.57626843  0.96401502  0.20582017  1
  O  O71  1  0.99569625  0.44560737  0.41436878  1
  O  O72  1  0.71255041  0.78811129  0.27727529  1
  O  O73  1  0.94098214  0.61048895  0.24815640  1
  O  O74  1  0.75458787  0.73775625  0.61736369  1
  O  O75  1  0.57839961  0.85458229  0.78300988  1
  O  O76  1  0.89310164  0.49742573  0.91412247  1
  O  O77  1  0.74623251  0.68212345  0.94456595  1
  O  O78  1  0.93030837  0.78762123  0.70347259  1
  O  O79  1  0.99812250  0.94455467  0.41315974  1
