# generated using pymatgen
data_MnP4O11
_symmetry_space_group_name_H-M   'P 1'
_cell_length_a   9.48344100
_cell_length_b   9.51200167
_cell_length_c   11.02281456
_cell_angle_alpha   108.94894369
_cell_angle_beta   108.69867453
_cell_angle_gamma   90.25154923
_symmetry_Int_Tables_number   1
_chemical_formula_structural   MnP4O11
_chemical_formula_sum   'Mn4 P16 O44'
_cell_volume   884.24996043
_cell_formula_units_Z   4
loop_
 _symmetry_equiv_pos_site_id
 _symmetry_equiv_pos_as_xyz
  1  'x, y, z'
loop_
 _atom_site_type_symbol
 _atom_site_label
 _atom_site_symmetry_multiplicity
 _atom_site_fract_x
 _atom_site_fract_y
 _atom_site_fract_z
 _atom_site_occupancy
  Mn  Mn0  1  0.74624300  0.72984400  0.97991800  1
  Mn  Mn1  1  0.25375700  0.27015600  0.02008200  1
  Mn  Mn2  1  0.77317100  0.23347600  0.50355900  1
  Mn  Mn3  1  0.22682900  0.76652400  0.49644100  1
  P  P4  1  0.08732600  0.94321700  0.75296200  1
  P  P5  1  0.91267400  0.05678300  0.24703800  1
  P  P6  1  0.76675000  0.91934800  0.60891300  1
  P  P7  1  0.23325000  0.08065200  0.39108700  1
  P  P8  1  0.10131700  0.72920600  0.91064900  1
  P  P9  1  0.89868300  0.27079400  0.08935100  1
  P  P10  1  0.73586000  0.58572300  0.43761000  1
  P  P11  1  0.26414000  0.41427700  0.56239000  1
  P  P12  1  0.56041600  0.91894800  0.76515500  1
  P  P13  1  0.43958400  0.08105200  0.23484500  1
  P  P14  1  0.43119900  0.74967600  0.07831800  1
  P  P15  1  0.56880100  0.25032400  0.92168200  1
  P  P16  1  0.10415300  0.41002200  0.76398000  1
  P  P17  1  0.89584700  0.58997800  0.23602000  1
  P  P18  1  0.41301900  0.60024200  0.27928400  1
  P  P19  1  0.58698100  0.39975800  0.72071600  1
  O  O20  1  0.91110600  0.96058900  0.74217500  1
  O  O21  1  0.08889400  0.03941100  0.25782500  1
  O  O22  1  0.08540200  0.83665900  0.61913000  1
  O  O23  1  0.91459800  0.16334100  0.38087000  1
  O  O24  1  0.17623500  0.09327500  0.82079300  1
  O  O25  1  0.82376500  0.90672500  0.17920700  1
  O  O26  1  0.13643500  0.86414600  0.86931800  1
  O  O27  1  0.86356500  0.13585400  0.13068200  1
  O  O28  1  0.74165400  0.73991300  0.55534600  1
  O  O29  1  0.25834600  0.26008700  0.44465400  1
  O  O30  1  0.76912000  0.98855400  0.50777000  1
  O  O31  1  0.23088000  0.01144600  0.49223000  1
  O  O32  1  0.63630800  0.96520800  0.66661500  1
  O  O33  1  0.36369200  0.03479200  0.33338500  1
  O  O34  1  0.25212400  0.73684500  0.03308000  1
  O  O35  1  0.74787600  0.26315500  0.96692000  1
  O  O36  1  0.09406100  0.58881500  0.78244800  1
  O  O37  1  0.90593900  0.41118500  0.21755200  1
  O  O38  1  0.97389000  0.73647100  0.95970900  1
  O  O39  1  0.02611000  0.26352900  0.04029100  1
  O  O40  1  0.80882900  0.63490700  0.34692000  1
  O  O41  1  0.19117100  0.36509300  0.65308000  1
  O  O42  1  0.56509000  0.53619000  0.35092600  1
  O  O43  1  0.43491000  0.46381000  0.64907400  1
  O  O44  1  0.80244900  0.47129700  0.49383100  1
  O  O45  1  0.19755100  0.52870300  0.50616900  1
  O  O46  1  0.51110900  0.08167200  0.83187200  1
  O  O47  1  0.48889100  0.91832800  0.16812800  1
  O  O48  1  0.41935600  0.81775800  0.67930100  1
  O  O49  1  0.58064400  0.18224200  0.32069900  1
  O  O50  1  0.68004500  0.88191100  0.87189000  1
  O  O51  1  0.31995500  0.11808900  0.12811000  1
  O  O52  1  0.49454400  0.69822800  0.96769700  1
  O  O53  1  0.50545600  0.30177200  0.03230300  1
  O  O54  1  0.47574100  0.66204100  0.18081000  1
  O  O55  1  0.52425900  0.33795900  0.81919000  1
  O  O56  1  0.95301400  0.32325000  0.69588600  1
  O  O57  1  0.04698600  0.67675000  0.30411400  1
  O  O58  1  0.20818000  0.40865400  0.89705200  1
  O  O59  1  0.79182000  0.59134600  0.10294800  1
  O  O60  1  0.38328900  0.72966100  0.38402600  1
  O  O61  1  0.61671100  0.27033900  0.61597400  1
  O  O62  1  0.30029400  0.46706700  0.19534500  1
  O  O63  1  0.69970600  0.53293300  0.80465500  1
