# generated using pymatgen
data_Fe2Cu3(SeO3)6
_symmetry_space_group_name_H-M   'P 1'
_cell_length_a   19.35901200
_cell_length_b   5.48442700
_cell_length_c   9.25407023
_cell_angle_alpha   56.06545893
_cell_angle_beta   90.00000000
_cell_angle_gamma   90.00000000
_symmetry_Int_Tables_number   1
_chemical_formula_structural   Fe2Cu3(SeO3)6
_chemical_formula_sum   'Fe4 Cu6 Se12 O36'
_cell_volume   815.18412354
_cell_formula_units_Z   2
loop_
 _symmetry_equiv_pos_site_id
 _symmetry_equiv_pos_as_xyz
  1  'x, y, z'
loop_
 _atom_site_type_symbol
 _atom_site_label
 _atom_site_symmetry_multiplicity
 _atom_site_fract_x
 _atom_site_fract_y
 _atom_site_fract_z
 _atom_site_occupancy
  Fe  Fe0  1  0.34346500  0.22954200  0.23805400  1
  Fe  Fe1  1  0.65653500  0.77045800  0.76194600  1
  Fe  Fe2  1  0.15653500  0.22954200  0.73805400  1
  Fe  Fe3  1  0.84346500  0.77045800  0.26194600  1
  Cu  Cu4  1  0.48666700  0.20785800  0.67667500  1
  Cu  Cu5  1  0.51333300  0.79214200  0.32332500  1
  Cu  Cu6  1  0.98666700  0.79214200  0.82332500  1
  Cu  Cu7  1  0.00000000  0.50000000  0.50000000  1
  Cu  Cu8  1  0.01333300  0.20785800  0.17667500  1
  Cu  Cu9  1  0.50000000  0.50000000  0.00000000  1
  Se  Se10  1  0.77947400  0.46369300  0.06036600  1
  Se  Se11  1  0.59618100  0.26280100  0.35869100  1
  Se  Se12  1  0.88262200  0.07501400  0.47364600  1
  Se  Se13  1  0.11737800  0.92498600  0.52635400  1
  Se  Se14  1  0.22052600  0.53630700  0.93963400  1
  Se  Se15  1  0.72052600  0.46369300  0.56036600  1
  Se  Se16  1  0.38262200  0.92498600  0.02635400  1
  Se  Se17  1  0.09618100  0.73719900  0.14130900  1
  Se  Se18  1  0.27947400  0.53630700  0.43963400  1
  Se  Se19  1  0.40381900  0.73719900  0.64130900  1
  Se  Se20  1  0.90381900  0.26280100  0.85869100  1
  Se  Se21  1  0.61737800  0.07501400  0.97364600  1
  O  O22  1  0.96288000  0.19986800  0.73698900  1
  O  O23  1  0.53712000  0.19986800  0.23698900  1
  O  O24  1  0.19442000  0.42637600  0.49215400  1
  O  O25  1  0.95926600  0.37521200  0.96058900  1
  O  O26  1  0.22910700  0.91187100  0.84081300  1
  O  O27  1  0.40598200  0.97946500  0.18896300  1
  O  O28  1  0.27089300  0.91187100  0.34081300  1
  O  O29  1  0.90598200  0.02053500  0.31103700  1
  O  O30  1  0.11004000  0.09277900  0.97164200  1
  O  O31  1  0.57877800  0.42570200  0.88935300  1
  O  O32  1  0.54073400  0.37521200  0.46058900  1
  O  O33  1  0.28724600  0.51625700  0.25872100  1
  O  O34  1  0.88996000  0.90722100  0.02835800  1
  O  O35  1  0.78724600  0.48374300  0.24127900  1
  O  O36  1  0.77089300  0.08812900  0.15918700  1
  O  O37  1  0.03712000  0.80013200  0.26301100  1
  O  O38  1  0.07877800  0.57429800  0.61064700  1
  O  O39  1  0.72910700  0.08812900  0.65918700  1
  O  O40  1  0.55772800  0.82813300  0.12456600  1
  O  O41  1  0.61004000  0.90722100  0.52835800  1
  O  O42  1  0.69442000  0.57362400  0.00784600  1
  O  O43  1  0.09401800  0.97946500  0.68896300  1
  O  O44  1  0.92122200  0.42570200  0.38935300  1
  O  O45  1  0.30558000  0.42637600  0.99215400  1
  O  O46  1  0.42122200  0.57429800  0.11064700  1
  O  O47  1  0.21275400  0.51625700  0.75872100  1
  O  O48  1  0.71275400  0.48374300  0.74127900  1
  O  O49  1  0.59401800  0.02053500  0.81103700  1
  O  O50  1  0.94227200  0.82813300  0.62456600  1
  O  O51  1  0.80558000  0.57362400  0.50784600  1
  O  O52  1  0.46288000  0.80013200  0.76301100  1
  O  O53  1  0.04073400  0.62478800  0.03941100  1
  O  O54  1  0.05772800  0.17186700  0.37543400  1
  O  O55  1  0.38996000  0.09277900  0.47164200  1
  O  O56  1  0.44227200  0.17186700  0.87543400  1
  O  O57  1  0.45926600  0.62478800  0.53941100  1
