# generated using pymatgen
data_V2Co(PO5)2
_symmetry_space_group_name_H-M   'P 1'
_cell_length_a   7.45642400
_cell_length_b   7.36114300
_cell_length_c   7.42467668
_cell_angle_alpha   60.26593662
_cell_angle_beta   90.00000000
_cell_angle_gamma   90.00000000
_symmetry_Int_Tables_number   1
_chemical_formula_structural   V2Co(PO5)2
_chemical_formula_sum   'V4 Co2 P4 O20'
_cell_volume   353.86825462
_cell_formula_units_Z   2
loop_
 _symmetry_equiv_pos_site_id
 _symmetry_equiv_pos_as_xyz
  1  'x, y, z'
loop_
 _atom_site_type_symbol
 _atom_site_label
 _atom_site_symmetry_multiplicity
 _atom_site_fract_x
 _atom_site_fract_y
 _atom_site_fract_z
 _atom_site_occupancy
  V  V0  1  0.77540600  0.74050100  0.46283400  1
  V  V1  1  0.72459400  0.74050100  0.96283400  1
  V  V2  1  0.27540600  0.25949900  0.03716600  1
  V  V3  1  0.22459400  0.25949900  0.53716600  1
  Co  Co4  1  0.00000000  0.00000000  0.00000000  1
  Co  Co5  1  0.50000000  0.00000000  0.50000000  1
  P  P6  1  0.12040100  0.74846700  0.75012800  1
  P  P7  1  0.87959900  0.25153300  0.24987200  1
  P  P8  1  0.62040100  0.25153300  0.74987200  1
  P  P9  1  0.37959900  0.74846700  0.25012800  1
  O  O10  1  0.66080900  0.76986800  0.72869800  1
  O  O11  1  0.24380500  0.55897400  0.86648600  1
  O  O12  1  0.16080900  0.23013200  0.77130200  1
  O  O13  1  0.49449100  0.72748800  0.09025500  1
  O  O14  1  0.75442800  0.05660600  0.35533900  1
  O  O15  1  0.74380500  0.44102600  0.63351400  1
  O  O16  1  0.00477900  0.21942800  0.09828800  1
  O  O17  1  0.50550900  0.27251200  0.90974500  1
  O  O18  1  0.75619500  0.44102600  0.13351400  1
  O  O19  1  0.74557200  0.05660600  0.85533900  1
  O  O20  1  0.00550900  0.72748800  0.59025500  1
  O  O21  1  0.99522100  0.78057200  0.90171200  1
  O  O22  1  0.25619500  0.55897400  0.36648600  1
  O  O23  1  0.99449100  0.27251200  0.40974500  1
  O  O24  1  0.24557200  0.94339400  0.64466100  1
  O  O25  1  0.25442800  0.94339400  0.14466100  1
  O  O26  1  0.49522100  0.21942800  0.59828800  1
  O  O27  1  0.83919100  0.76986800  0.22869800  1
  O  O28  1  0.50477900  0.78057200  0.40171200  1
  O  O29  1  0.33919100  0.23013200  0.27130200  1
