# generated using pymatgen
data_Li11Mn13O32
_symmetry_space_group_name_H-M   'P 1'
_cell_length_a   8.28385936
_cell_length_b   8.28385936
_cell_length_c   10.10544729
_cell_angle_alpha   66.01881983
_cell_angle_beta   66.01881983
_cell_angle_gamma   89.52121435
_symmetry_Int_Tables_number   1
_chemical_formula_structural   Li11Mn13O32
_chemical_formula_sum   'Li11 Mn13 O32'
_cell_volume   568.59839541
_cell_formula_units_Z   1
loop_
 _symmetry_equiv_pos_site_id
 _symmetry_equiv_pos_as_xyz
  1  'x, y, z'
loop_
 _atom_site_type_symbol
 _atom_site_label
 _atom_site_symmetry_multiplicity
 _atom_site_fract_x
 _atom_site_fract_y
 _atom_site_fract_z
 _atom_site_occupancy
  Li  Li0  1  0.42847100  0.42847100  0.88504100  1
  Li  Li1  1  0.92909000  0.92909000  0.88008900  1
  Li  Li2  1  0.17665000  0.68183300  0.37867300  1
  Li  Li3  1  0.75218900  0.24781100  0.00000000  1
  Li  Li4  1  0.82335000  0.31816700  0.62132700  1
  Li  Li5  1  0.00000000  0.00000000  0.50000000  1
  Li  Li6  1  0.68183300  0.17665000  0.37867300  1
  Li  Li7  1  0.07091000  0.07091000  0.11991100  1
  Li  Li8  1  0.24781100  0.75218900  0.00000000  1
  Li  Li9  1  0.31816700  0.82335000  0.62132700  1
  Li  Li10  1  0.57152900  0.57152900  0.11495900  1
  Mn  Mn11  1  0.75105300  0.75105300  0.50292900  1
  Mn  Mn12  1  0.62336800  0.87820800  0.24783500  1
  Mn  Mn13  1  0.50000000  0.50000000  0.50000000  1
  Mn  Mn14  1  0.12179200  0.37663200  0.75216500  1
  Mn  Mn15  1  0.24894700  0.24894700  0.49707100  1
  Mn  Mn16  1  0.12550900  0.37516700  0.24919600  1
  Mn  Mn17  1  0.50000000  0.00000000  0.00000000  1
  Mn  Mn18  1  0.62483300  0.87449100  0.75080400  1
  Mn  Mn19  1  0.37663200  0.12179200  0.75216500  1
  Mn  Mn20  1  0.87820800  0.62336800  0.24783500  1
  Mn  Mn21  1  0.00000000  0.50000000  0.00000000  1
  Mn  Mn22  1  0.87449100  0.62483300  0.75080400  1
  Mn  Mn23  1  0.37516700  0.12550900  0.24919600  1
  O  O24  1  0.85269100  0.85269100  0.26488700  1
  O  O25  1  0.51771700  0.73909800  0.48815800  1
  O  O26  1  0.62828900  0.62828900  0.26703400  1
  O  O27  1  0.37171100  0.37171100  0.73296600  1
  O  O28  1  0.01330600  0.27992800  0.97704900  1
  O  O29  1  0.26090200  0.48228300  0.51184200  1
  O  O30  1  0.14730900  0.14730900  0.73511300  1
  O  O31  1  0.89861800  0.39341900  0.74913500  1
  O  O32  1  0.35771100  0.35771100  0.26084000  1
  O  O33  1  0.03214600  0.26036600  0.48151400  1
  O  O34  1  0.72007200  0.98669400  0.02295100  1
  O  O35  1  0.49326000  0.22009200  0.01996200  1
  O  O36  1  0.14375500  0.14375500  0.25254000  1
  O  O37  1  0.39161000  0.89316300  0.23800600  1
  O  O38  1  0.60839000  0.10683700  0.76199400  1
  O  O39  1  0.85624500  0.85624500  0.74746000  1
  O  O40  1  0.96785400  0.73963400  0.51848600  1
  O  O41  1  0.73963400  0.96785400  0.51848600  1
  O  O42  1  0.50674000  0.77990800  0.98003800  1
  O  O43  1  0.27992800  0.01330600  0.97704900  1
  O  O44  1  0.64228900  0.64228900  0.73916000  1
  O  O45  1  0.39341900  0.89861800  0.74913500  1
  O  O46  1  0.10138200  0.60658100  0.25086500  1
  O  O47  1  0.22009200  0.49326000  0.01996200  1
  O  O48  1  0.73909800  0.51771700  0.48815800  1
  O  O49  1  0.98669400  0.72007200  0.02295100  1
  O  O50  1  0.89316300  0.39161000  0.23800600  1
  O  O51  1  0.10683700  0.60839000  0.76199400  1
  O  O52  1  0.77990800  0.50674000  0.98003800  1
  O  O53  1  0.48228300  0.26090200  0.51184200  1
  O  O54  1  0.60658100  0.10138200  0.25086500  1
  O  O55  1  0.26036600  0.03214600  0.48151400  1
