# generated using pymatgen
data_Ca3(BN2)2
_symmetry_space_group_name_H-M   'P 1'
_cell_length_a   7.39830300
_cell_length_b   10.28088500
_cell_length_c   10.49129400
_cell_angle_alpha   90.00000000
_cell_angle_beta   90.00000000
_cell_angle_gamma   90.00000000
_symmetry_Int_Tables_number   1
_chemical_formula_structural   Ca3(BN2)2
_chemical_formula_sum   'Ca18 B12 N24'
_cell_volume   797.97938659
_cell_formula_units_Z   6
loop_
 _symmetry_equiv_pos_site_id
 _symmetry_equiv_pos_as_xyz
  1  'x, y, z'
loop_
 _atom_site_type_symbol
 _atom_site_label
 _atom_site_symmetry_multiplicity
 _atom_site_fract_x
 _atom_site_fract_y
 _atom_site_fract_z
 _atom_site_occupancy
  Ca  Ca0  1  0.25118000  0.00000000  0.24094500  1
  Ca  Ca1  1  0.00000000  0.00000000  0.50000000  1
  Ca  Ca2  1  0.74882000  0.00000000  0.75905500  1
  Ca  Ca3  1  0.99617000  0.74656200  0.26007800  1
  Ca  Ca4  1  0.50000000  0.00000000  0.50000000  1
  Ca  Ca5  1  0.50383000  0.75343800  0.76007800  1
  Ca  Ca6  1  0.49617000  0.75343800  0.23992200  1
  Ca  Ca7  1  0.00000000  0.00000000  0.00000000  1
  Ca  Ca8  1  0.75118000  0.50000000  0.25905500  1
  Ca  Ca9  1  0.50000000  0.50000000  0.50000000  1
  Ca  Ca10  1  0.00383000  0.74656200  0.73992200  1
  Ca  Ca11  1  0.24882000  0.50000000  0.74094500  1
  Ca  Ca12  1  0.49617000  0.24656200  0.23992200  1
  Ca  Ca13  1  0.00000000  0.50000000  0.00000000  1
  Ca  Ca14  1  0.00383000  0.25343800  0.73992200  1
  Ca  Ca15  1  0.99617000  0.25343800  0.26007800  1
  Ca  Ca16  1  0.50000000  0.50000000  0.00000000  1
  Ca  Ca17  1  0.50383000  0.24656200  0.76007800  1
  B  B18  1  0.26094100  0.75588000  0.50449500  1
  B  B19  1  0.74471100  0.00000000  0.26005900  1
  B  B20  1  0.73905900  0.75588000  0.49550500  1
  B  B21  1  0.76094100  0.74412000  0.99550500  1
  B  B22  1  0.25528900  0.00000000  0.73994100  1
  B  B23  1  0.23905900  0.74412000  0.00449500  1
  B  B24  1  0.73905900  0.24412000  0.49550500  1
  B  B25  1  0.24471100  0.50000000  0.23994100  1
  B  B26  1  0.26094100  0.24412000  0.50449500  1
  B  B27  1  0.23905900  0.25588000  0.00449500  1
  B  B28  1  0.75528900  0.50000000  0.76005900  1
  B  B29  1  0.76094100  0.25588000  0.99550500  1
  N  N30  1  0.23503700  0.84047200  0.40829900  1
  N  N31  1  0.92619800  0.00000000  0.25232900  1
  N  N32  1  0.78920100  0.82408600  0.89711500  1
  N  N33  1  0.43538000  0.00000000  0.72701900  1
  N  N34  1  0.76496300  0.84047200  0.59170100  1
  N  N35  1  0.71079900  0.67591400  0.39711500  1
  N  N36  1  0.21079900  0.82408600  0.10288500  1
  N  N37  1  0.26496300  0.65952800  0.90829900  1
  N  N38  1  0.28920100  0.67591400  0.60288500  1
  N  N39  1  0.42619800  0.50000000  0.24767100  1
  N  N40  1  0.71079900  0.32408600  0.39711500  1
  N  N41  1  0.06462000  0.50000000  0.22701900  1
  N  N42  1  0.73503700  0.65952800  0.09170100  1
  N  N43  1  0.26496300  0.34047200  0.90829900  1
  N  N44  1  0.93538000  0.50000000  0.77298100  1
  N  N45  1  0.28920100  0.32408600  0.60288500  1
  N  N46  1  0.23503700  0.15952800  0.40829900  1
  N  N47  1  0.57380200  0.50000000  0.75232900  1
  N  N48  1  0.73503700  0.34047200  0.09170100  1
  N  N49  1  0.78920100  0.17591400  0.89711500  1
  N  N50  1  0.76496300  0.15952800  0.59170100  1
  N  N51  1  0.56462000  0.00000000  0.27298100  1
  N  N52  1  0.21079900  0.17591400  0.10288500  1
  N  N53  1  0.07380200  0.00000000  0.74767100  1
