# generated using pymatgen
data_Mo8O23
_symmetry_space_group_name_H-M   'P 1'
_cell_length_a   8.13758000
_cell_length_b   13.71323966
_cell_length_c   17.35525478
_cell_angle_alpha   106.35859388
_cell_angle_beta   90.00000000
_cell_angle_gamma   90.00000000
_symmetry_Int_Tables_number   1
_chemical_formula_structural   Mo8O23
_chemical_formula_sum   'Mo32 O92'
_cell_volume   1858.31507768
_cell_formula_units_Z   4
loop_
 _symmetry_equiv_pos_site_id
 _symmetry_equiv_pos_as_xyz
  1  'x, y, z'
loop_
 _atom_site_type_symbol
 _atom_site_label
 _atom_site_symmetry_multiplicity
 _atom_site_fract_x
 _atom_site_fract_y
 _atom_site_fract_z
 _atom_site_occupancy
  Mo  Mo0  1  0.79210300  0.55531800  0.59838000  1
  Mo  Mo1  1  0.79142600  0.68489900  0.42183300  1
  Mo  Mo2  1  0.29182500  0.44627600  0.90429500  1
  Mo  Mo3  1  0.28780800  0.18598200  0.74663400  1
  Mo  Mo4  1  0.71260300  0.93650000  0.58264500  1
  Mo  Mo5  1  0.70744800  0.55553800  0.09875400  1
  Mo  Mo6  1  0.21086000  0.06725400  0.91871300  1
  Mo  Mo7  1  0.20789700  0.55531800  0.09838000  1
  Mo  Mo8  1  0.78608200  0.81713700  0.75478100  1
  Mo  Mo9  1  0.78914000  0.06725400  0.41871300  1
  Mo  Mo10  1  0.71103300  0.68547900  0.92062700  1
  Mo  Mo11  1  0.79152700  0.44664400  0.90469800  1
  Mo  Mo12  1  0.28739700  0.93650000  0.08264500  1
  Mo  Mo13  1  0.28896700  0.68547900  0.42062700  1
  Mo  Mo14  1  0.20936000  0.31676900  0.58110900  1
  Mo  Mo15  1  0.20857400  0.68489900  0.92183300  1
  Mo  Mo16  1  0.28817900  0.06513100  0.42033900  1
  Mo  Mo17  1  0.28829300  0.31647900  0.08254500  1
  Mo  Mo18  1  0.71219200  0.18598200  0.24663400  1
  Mo  Mo19  1  0.21402900  0.18453700  0.24828700  1
  Mo  Mo20  1  0.20847300  0.44664400  0.40469800  1
  Mo  Mo21  1  0.21391800  0.81713700  0.25478100  1
  Mo  Mo22  1  0.28758300  0.81612700  0.75665200  1
  Mo  Mo23  1  0.29255200  0.55553800  0.59875400  1
  Mo  Mo24  1  0.71182100  0.06513100  0.92033900  1
  Mo  Mo25  1  0.71170700  0.31647900  0.58254500  1
  Mo  Mo26  1  0.71241700  0.81612700  0.25665200  1
  Mo  Mo27  1  0.79064000  0.31676900  0.08110900  1
  Mo  Mo28  1  0.78824300  0.93478900  0.08451800  1
  Mo  Mo29  1  0.78597100  0.18453700  0.74828700  1
  Mo  Mo30  1  0.21175700  0.93478900  0.58451800  1
  Mo  Mo31  1  0.70817500  0.44627600  0.40429500  1
  O  O32  1  0.76004000  0.45814000  0.65362000  1
  O  O33  1  0.49893100  0.19906200  0.24166400  1
  O  O34  1  0.24366000  0.93451800  0.33600900  1
  O  O35  1  0.24992900  0.93374600  0.83671000  1
  O  O36  1  0.75436200  0.06734800  0.66711100  1
  O  O37  1  0.23330700  0.00029800  0.50127800  1
  O  O38  1  0.74577800  0.58981100  0.49707100  1
  O  O39  1  0.23032800  0.73685000  0.83648300  1
  O  O40  1  0.23031800  0.26508100  0.66664700  1
  O  O41  1  0.75509600  0.73801400  0.83721300  1
  O  O42  1  0.49784500  0.06066600  0.92118300  1
  O  O43  1  0.76669300  0.00029800  0.00127800  1
  O  O44  1  0.00408900  0.32150000  0.07327600  1
  O  O45  1  0.25113500  0.45857300  0.65334900  1
  O  O46  1  0.50279000  0.32161100  0.08494100  1
  O  O47  1  0.25288500  0.06821800  0.66635300  1
  O  O48  1  0.25458600  0.67456300  0.67443500  1
  O  O49  1  0.74491200  0.79998400  0.00483300  1
  O  O50  1  0.50215500  0.06066600  0.42118300  1
  O  O51  1  0.74541400  0.67456300  0.17443400  1
  O  O52  1  0.99932700  0.81128600  0.24966100  1
  O  O53  1  0.76968200  0.26508100  0.16664700  1
  O  O54  1  0.75007100  0.93374600  0.33671000  1
  O  O55  1  0.25508800  0.79998400  0.50483300  1
  O  O56  1  0.25459300  0.41200600  0.50587900  1
  O  O57  1  0.24490400  0.73801400  0.33721300  1
  O  O58  1  0.74377100  0.20185600  0.49824100  1
  O  O59  1  0.23996000  0.45814000  0.15362000  1
  O  O60  1  0.00220500  0.07502000  0.41140000  1
  O  O61  1  0.74760500  0.32733300  0.32875200  1
  O  O62  1  0.00135300  0.92812100  0.09246700  1
  O  O63  1  0.25437700  0.20159000  0.49925900  1
  O  O64  1  0.73021400  0.13188000  0.33095100  1
  O  O65  1  0.75557900  0.67373900  0.67478500  1
  O  O66  1  0.49645200  0.68114300  0.91880800  1
  O  O67  1  0.24442100  0.67373900  0.17478500  1
  O  O68  1  0.00067300  0.81128600  0.74966100  1
  O  O69  1  0.25622900  0.20185600  0.99824100  1
  O  O70  1  0.25162800  0.54325400  0.84958400  1
  O  O71  1  0.75801300  0.54369800  0.84944200  1
  O  O72  1  0.75607700  0.26384300  0.66585300  1
  O  O73  1  0.23226200  0.00157900  0.00186600  1
  O  O74  1  0.76967200  0.73685000  0.33648300  1
  O  O75  1  0.49300000  0.55372700  0.09665300  1
  O  O76  1  0.74540700  0.41200600  0.00587900  1
  O  O77  1  0.50700000  0.55372700  0.59665300  1
  O  O78  1  0.50092900  0.80429100  0.76237500  1
  O  O79  1  0.73682400  0.13289600  0.83161900  1
  O  O80  1  0.25677500  0.58960400  0.49666600  1
  O  O81  1  0.49369900  0.44718800  0.40619600  1
  O  O82  1  0.74711500  0.06821800  0.16635300  1
  O  O83  1  0.99779500  0.07502000  0.91140000  1
  O  O84  1  0.72977900  0.87004900  0.17220200  1
  O  O85  1  0.50354800  0.68114300  0.41880800  1
  O  O86  1  0.50106900  0.19906200  0.74166400  1
  O  O87  1  0.74861900  0.80021000  0.50390900  1
  O  O88  1  0.74886500  0.45857300  0.15334900  1
  O  O89  1  0.00645200  0.55519800  0.59196400  1
  O  O90  1  0.49721000  0.32161100  0.58494100  1
  O  O91  1  0.74322500  0.58960400  0.99666600  1
  O  O92  1  0.99591100  0.32150000  0.57327600  1
  O  O93  1  0.76773800  0.00157900  0.50186600  1
  O  O94  1  0.25576300  0.41237400  0.00647100  1
  O  O95  1  0.26978600  0.13188000  0.83095100  1
  O  O96  1  0.75634000  0.93451800  0.83600900  1
  O  O97  1  0.25239500  0.32733300  0.82875200  1
  O  O98  1  0.74562300  0.20159000  0.99925900  1
  O  O99  1  0.25422200  0.58981100  0.99707100  1
  O  O100  1  0.50139300  0.93989500  0.08103900  1
  O  O101  1  0.26317600  0.13289600  0.33161900  1
  O  O102  1  0.24318100  0.32803000  0.32827700  1
  O  O103  1  0.75681900  0.32803000  0.82827700  1
  O  O104  1  0.74423700  0.41237400  0.50647100  1
  O  O105  1  0.99509000  0.67936100  0.92894400  1
  O  O106  1  0.25138100  0.80021000  0.00390900  1
  O  O107  1  0.00065400  0.18935900  0.75286900  1
  O  O108  1  0.99934600  0.18935900  0.25286900  1
  O  O109  1  0.49907100  0.80429100  0.26237500  1
  O  O110  1  0.00586800  0.44775000  0.91129100  1
  O  O111  1  0.00491000  0.67936100  0.42894400  1
  O  O112  1  0.99413200  0.44775000  0.41129100  1
  O  O113  1  0.24563800  0.06734800  0.16711100  1
  O  O114  1  0.27022100  0.87004900  0.67220200  1
  O  O115  1  0.99864700  0.92812100  0.59246700  1
  O  O116  1  0.74837200  0.54325400  0.34958400  1
  O  O117  1  0.24392300  0.26384300  0.16585200  1
  O  O118  1  0.26293500  0.86887900  0.17148700  1
  O  O119  1  0.73706500  0.86887900  0.67148700  1
  O  O120  1  0.99354800  0.55519800  0.09196400  1
  O  O121  1  0.24198700  0.54369800  0.34944200  1
  O  O122  1  0.50630100  0.44718800  0.90619600  1
  O  O123  1  0.49860700  0.93989500  0.58103900  1
