# generated using pymatgen
data_CsTeAu
_symmetry_space_group_name_H-M   'P 1'
_cell_length_a   5.53540700
_cell_length_b   6.35026300
_cell_length_c   7.32789400
_cell_angle_alpha   90.00000000
_cell_angle_beta   90.00000000
_cell_angle_gamma   90.00000000
_symmetry_Int_Tables_number   1
_chemical_formula_structural   CsTeAu
_chemical_formula_sum   'Cs2 Te2 Au2'
_cell_volume   257.58492900
_cell_formula_units_Z   2
loop_
 _symmetry_equiv_pos_site_id
 _symmetry_equiv_pos_as_xyz
  1  'x, y, z'
loop_
 _atom_site_type_symbol
 _atom_site_label
 _atom_site_symmetry_multiplicity
 _atom_site_fract_x
 _atom_site_fract_y
 _atom_site_fract_z
 _atom_site_occupancy
  Cs  Cs0  1  0.50000000  0.25000000  0.28897700  1
  Cs  Cs1  1  0.50000000  0.75000000  0.71102300  1
  Te  Te2  1  0.00000000  0.75000000  0.28820200  1
  Te  Te3  1  0.00000000  0.25000000  0.71179800  1
  Au  Au4  1  0.00000000  0.00000000  0.00000000  1
  Au  Au5  1  0.00000000  0.50000000  0.00000000  1
