# generated using pymatgen
data_Co5Se4(ClO6)2
_symmetry_space_group_name_H-M   'P 1'
_cell_length_a   6.57894260
_cell_length_b   14.44261952
_cell_length_c   8.00979065
_cell_angle_alpha   96.13650491
_cell_angle_beta   72.53187658
_cell_angle_gamma   89.83767000
_symmetry_Int_Tables_number   1
_chemical_formula_structural   Co5Se4(ClO6)2
_chemical_formula_sum   'Co10 Se8 Cl4 O24'
_cell_volume   721.32103854
_cell_formula_units_Z   2
loop_
 _symmetry_equiv_pos_site_id
 _symmetry_equiv_pos_as_xyz
  1  'x, y, z'
loop_
 _atom_site_type_symbol
 _atom_site_label
 _atom_site_symmetry_multiplicity
 _atom_site_fract_x
 _atom_site_fract_y
 _atom_site_fract_z
 _atom_site_occupancy
  Co  Co0  1  0.99999100  0.49999300  0.50000800  1
  Co  Co1  1  0.11195300  0.84853100  0.28449500  1
  Co  Co2  1  0.88791900  0.15147700  0.71556600  1
  Co  Co3  1  0.68030900  0.56339400  0.90671900  1
  Co  Co4  1  0.31970000  0.43658600  0.09326400  1
  Co  Co5  1  0.99996600  0.00005000  0.99995800  1
  Co  Co6  1  0.11235800  0.34855400  0.78443200  1
  Co  Co7  1  0.88761900  0.65141200  0.21557600  1
  Co  Co8  1  0.68022600  0.06357100  0.40688100  1
  Co  Co9  1  0.32004800  0.93630900  0.59308800  1
  Se  Se10  1  0.65226600  0.34585000  0.67020400  1
  Se  Se11  1  0.65201900  0.84585000  0.17020200  1
  Se  Se12  1  0.34790300  0.15412100  0.82982500  1
  Se  Se13  1  0.34768900  0.65413800  0.32979400  1
  Se  Se14  1  0.78737800  0.41923900  0.19732500  1
  Se  Se15  1  0.78739300  0.91933200  0.69720500  1
  Se  Se16  1  0.21279300  0.08068700  0.30282200  1
  Se  Se17  1  0.21262400  0.58074400  0.80267000  1
  Cl  Cl18  1  0.17675600  0.34443300  0.35037900  1
  Cl  Cl19  1  0.17652600  0.84445300  0.85007600  1
  Cl  Cl20  1  0.82328800  0.15554100  0.14976000  1
  Cl  Cl21  1  0.82322800  0.65557400  0.64960800  1
  O  O22  1  0.58368000  0.15062700  0.65770000  1
  O  O23  1  0.58346600  0.65047100  0.15767000  1
  O  O24  1  0.41649600  0.34953700  0.84234100  1
  O  O25  1  0.41628700  0.84940900  0.34238700  1
  O  O26  1  0.83385300  0.02319700  0.81263800  1
  O  O27  1  0.83388800  0.52314500  0.31264000  1
  O  O28  1  0.16610000  0.47683700  0.68737200  1
  O  O29  1  0.16621200  0.97682100  0.18739700  1
  O  O30  1  0.96376000  0.09860800  0.46006700  1
  O  O31  1  0.96363500  0.59853100  0.96003000  1
  O  O32  1  0.03635900  0.40148100  0.03995200  1
  O  O33  1  0.03633000  0.90147600  0.53986700  1
  O  O34  1  0.83242500  0.29304700  0.75674300  1
  O  O35  1  0.83219600  0.79297100  0.25661400  1
  O  O36  1  0.16770700  0.20700600  0.74343400  1
  O  O37  1  0.16755000  0.70695300  0.24324300  1
  O  O38  1  0.26220100  0.04086300  0.81683000  1
  O  O39  1  0.26204200  0.54085800  0.31701200  1
  O  O40  1  0.73795000  0.45913300  0.68299100  1
  O  O41  1  0.73782100  0.95909700  0.18304200  1
  O  O42  1  0.35995300  0.04886200  0.43482100  1
  O  O43  1  0.36010000  0.54890100  0.93441100  1
  O  O44  1  0.63988700  0.45110600  0.06561200  1
  O  O45  1  0.64015500  0.95122300  0.56533100  1
