# generated using pymatgen
data_NaZr2AgF11
_symmetry_space_group_name_H-M   'P 1'
_cell_length_a   5.81095106
_cell_length_b   5.97303546
_cell_length_c   7.98243349
_cell_angle_alpha   111.71505482
_cell_angle_beta   95.91648132
_cell_angle_gamma   105.88261216
_symmetry_Int_Tables_number   1
_chemical_formula_structural   NaZr2AgF11
_chemical_formula_sum   'Na1 Zr2 Ag1 F11'
_cell_volume   241.01458681
_cell_formula_units_Z   1
loop_
 _symmetry_equiv_pos_site_id
 _symmetry_equiv_pos_as_xyz
  1  'x, y, z'
loop_
 _atom_site_type_symbol
 _atom_site_label
 _atom_site_symmetry_multiplicity
 _atom_site_fract_x
 _atom_site_fract_y
 _atom_site_fract_z
 _atom_site_occupancy
  Na  Na0  1  -0.00000000  -0.00000000  0.00000000  1
  Zr  Zr1  1  0.50617202  0.73723914  0.23023213  1
  Zr  Zr2  1  0.49382798  0.26276086  0.76976787  1
  Ag  Ag3  1  -0.00000000  0.50000000  0.50000000  1
  F  F4  1  0.25895285  0.84060396  0.11390837  1
  F  F5  1  0.34038534  0.34549030  0.01519167  1
  F  F6  1  0.65961466  0.65450970  0.98480833  1
  F  F7  1  0.77338839  0.48408472  0.68532545  1
  F  F8  1  0.79258336  0.05361102  0.27636771  1
  F  F9  1  0.20741664  0.94638898  0.72363229  1
  F  F10  1  0.74104715  0.15939604  0.88609163  1
  F  F11  1  0.22661161  0.51591528  0.31467455  1
  F  F12  1  0.74069402  0.60612976  0.34718600  1
  F  F13  1  0.25930598  0.39387024  0.65281400  1
  F  F14  1  0.50000000  -0.00000000  0.50000000  1
