# generated using pymatgen
data_Zr6Fe23
_symmetry_space_group_name_H-M   'P 1'
_cell_length_a   8.27067729
_cell_length_b   8.27067729
_cell_length_c   8.27067729
_cell_angle_alpha   60.00000000
_cell_angle_beta   60.00000000
_cell_angle_gamma   60.00000000
_symmetry_Int_Tables_number   1
_chemical_formula_structural   Zr6Fe23
_chemical_formula_sum   'Zr6 Fe23'
_cell_volume   400.04443166
_cell_formula_units_Z   1
loop_
 _symmetry_equiv_pos_site_id
 _symmetry_equiv_pos_as_xyz
  1  'x, y, z'
loop_
 _atom_site_type_symbol
 _atom_site_label
 _atom_site_symmetry_multiplicity
 _atom_site_fract_x
 _atom_site_fract_y
 _atom_site_fract_z
 _atom_site_occupancy
  Zr  Zr0  1  0.20589500  0.20589500  0.79410500  1
  Zr  Zr1  1  0.20589500  0.79410500  0.79410500  1
  Zr  Zr2  1  0.20589500  0.79410500  0.20589500  1
  Zr  Zr3  1  0.79410500  0.20589500  0.20589500  1
  Zr  Zr4  1  0.79410500  0.20589500  0.79410500  1
  Zr  Zr5  1  0.79410500  0.79410500  0.20589500  1
  Fe  Fe6  1  0.17255900  0.17255900  0.17255900  1
  Fe  Fe7  1  0.82744100  0.82744100  0.82744100  1
  Fe  Fe8  1  0.00000000  0.50000000  0.00000000  1
  Fe  Fe9  1  0.62164900  0.13505300  0.62164900  1
  Fe  Fe10  1  0.82744100  0.82744100  0.51767600  1
  Fe  Fe11  1  0.86494700  0.37835100  0.37835100  1
  Fe  Fe12  1  0.50000000  0.50000000  0.00000000  1
  Fe  Fe13  1  0.17255900  0.48232400  0.17255900  1
  Fe  Fe14  1  0.48232400  0.17255900  0.17255900  1
  Fe  Fe15  1  0.37835100  0.37835100  0.37835100  1
  Fe  Fe16  1  0.50000000  0.50000000  0.50000000  1
  Fe  Fe17  1  0.51767600  0.82744100  0.82744100  1
  Fe  Fe18  1  0.13505300  0.62164900  0.62164900  1
  Fe  Fe19  1  0.82744100  0.51767600  0.82744100  1
  Fe  Fe20  1  0.50000000  0.00000000  0.50000000  1
  Fe  Fe21  1  0.00000000  0.50000000  0.50000000  1
  Fe  Fe22  1  0.37835100  0.37835100  0.86494700  1
  Fe  Fe23  1  0.17255900  0.17255900  0.48232400  1
  Fe  Fe24  1  0.37835100  0.86494700  0.37835100  1
  Fe  Fe25  1  0.62164900  0.62164900  0.62164900  1
  Fe  Fe26  1  0.50000000  0.00000000  0.00000000  1
  Fe  Fe27  1  0.62164900  0.62164900  0.13505300  1
  Fe  Fe28  1  0.00000000  0.00000000  0.50000000  1
