# generated using pymatgen
data_NCl3
_symmetry_space_group_name_H-M   'P 1'
_cell_length_a   8.50966100
_cell_length_b   9.86615800
_cell_length_c   17.43019600
_cell_angle_alpha   90.00000000
_cell_angle_beta   90.00000000
_cell_angle_gamma   90.00000000
_symmetry_Int_Tables_number   1
_chemical_formula_structural   NCl3
_chemical_formula_sum   'N12 Cl36'
_cell_volume   1463.39846867
_cell_formula_units_Z   12
loop_
 _symmetry_equiv_pos_site_id
 _symmetry_equiv_pos_as_xyz
  1  'x, y, z'
loop_
 _atom_site_type_symbol
 _atom_site_label
 _atom_site_symmetry_multiplicity
 _atom_site_fract_x
 _atom_site_fract_y
 _atom_site_fract_z
 _atom_site_occupancy
  N  N0  1  0.88848700  0.25000000  0.05096700  1
  N  N1  1  0.38848700  0.25000000  0.44903300  1
  N  N2  1  0.11151300  0.75000000  0.94903300  1
  N  N3  1  0.61151300  0.75000000  0.55096700  1
  N  N4  1  0.80495000  0.25000000  0.34877500  1
  N  N5  1  0.30495000  0.25000000  0.15122500  1
  N  N6  1  0.19505000  0.75000000  0.65122500  1
  N  N7  1  0.69505000  0.75000000  0.84877500  1
  N  N8  1  0.03457600  0.25000000  0.69535200  1
  N  N9  1  0.53457600  0.25000000  0.80464800  1
  N  N10  1  0.96542400  0.75000000  0.30464800  1
  N  N11  1  0.46542400  0.75000000  0.19535200  1
  Cl  Cl12  1  0.77574800  0.10388000  0.07568200  1
  Cl  Cl13  1  0.27574800  0.39612000  0.42431800  1
  Cl  Cl14  1  0.22425200  0.60388000  0.92431800  1
  Cl  Cl15  1  0.72425200  0.89612000  0.57568200  1
  Cl  Cl16  1  0.22425200  0.89612000  0.92431800  1
  Cl  Cl17  1  0.72425200  0.60388000  0.57568200  1
  Cl  Cl18  1  0.77574800  0.39612000  0.07568200  1
  Cl  Cl19  1  0.27574800  0.10388000  0.42431800  1
  Cl  Cl20  1  0.91319800  0.25000000  0.94962800  1
  Cl  Cl21  1  0.41319800  0.25000000  0.55037200  1
  Cl  Cl22  1  0.08680200  0.75000000  0.05037200  1
  Cl  Cl23  1  0.58680200  0.75000000  0.44962800  1
  Cl  Cl24  1  0.78218900  0.10457900  0.40832600  1
  Cl  Cl25  1  0.28218900  0.39542100  0.09167400  1
  Cl  Cl26  1  0.21781100  0.60457900  0.59167400  1
  Cl  Cl27  1  0.71781100  0.89542100  0.90832600  1
  Cl  Cl28  1  0.21781100  0.89542100  0.59167400  1
  Cl  Cl29  1  0.71781100  0.60457900  0.90832600  1
  Cl  Cl30  1  0.78218900  0.39542100  0.40832600  1
  Cl  Cl31  1  0.28218900  0.10457900  0.09167400  1
  Cl  Cl32  1  0.64730600  0.25000000  0.28106700  1
  Cl  Cl33  1  0.14730600  0.25000000  0.21893300  1
  Cl  Cl34  1  0.35269400  0.75000000  0.71893300  1
  Cl  Cl35  1  0.85269400  0.75000000  0.78106700  1
  Cl  Cl36  1  0.97907600  0.10439400  0.74941700  1
  Cl  Cl37  1  0.47907600  0.39560600  0.75058300  1
  Cl  Cl38  1  0.02092400  0.60439400  0.25058300  1
  Cl  Cl39  1  0.52092400  0.89560600  0.24941700  1
  Cl  Cl40  1  0.02092400  0.89560600  0.25058300  1
  Cl  Cl41  1  0.52092400  0.60439400  0.24941700  1
  Cl  Cl42  1  0.97907600  0.39560600  0.74941700  1
  Cl  Cl43  1  0.47907600  0.10439400  0.75058300  1
  Cl  Cl44  1  0.91968600  0.25000000  0.60913100  1
  Cl  Cl45  1  0.41968600  0.25000000  0.89086900  1
  Cl  Cl46  1  0.08031400  0.75000000  0.39086900  1
  Cl  Cl47  1  0.58031400  0.75000000  0.10913100  1
