# generated using pymatgen
data_EuZr3F15
_symmetry_space_group_name_H-M   'P 1'
_cell_length_a   8.28444404
_cell_length_b   8.28138520
_cell_length_c   16.57330707
_cell_angle_alpha   100.19426803
_cell_angle_beta   100.17774255
_cell_angle_gamma   100.13519881
_symmetry_Int_Tables_number   1
_chemical_formula_structural   EuZr3F15
_chemical_formula_sum   'Eu4 Zr12 F60'
_cell_volume   1075.97792155
_cell_formula_units_Z   4
loop_
 _symmetry_equiv_pos_site_id
 _symmetry_equiv_pos_as_xyz
  1  'x, y, z'
loop_
 _atom_site_type_symbol
 _atom_site_label
 _atom_site_symmetry_multiplicity
 _atom_site_fract_x
 _atom_site_fract_y
 _atom_site_fract_z
 _atom_site_occupancy
  Eu  Eu0  1  0.32395889  0.17841666  0.87484988  1
  Eu  Eu1  1  0.25092829  0.67849887  0.41158433  1
  Eu  Eu2  1  0.74907171  0.32150113  0.58841567  1
  Eu  Eu3  1  0.67604111  0.82158334  0.12515012  1
  F  F4  1  0.03499005  0.46497454  0.88068510  1
  F  F5  1  0.03463441  0.15182950  0.84007596  1
  F  F6  1  0.99732619  0.21529050  0.61000142  1
  F  F7  1  0.18948400  0.65209011  0.77956324  1
  F  F8  1  0.24343622  0.95076042  0.76197241  1
  F  F9  1  0.02309013  0.45257012  0.36566634  1
  F  F10  1  0.30962028  0.93125422  0.92424282  1
  F  F11  1  0.14826502  0.68691141  0.53504248  1
  F  F12  1  0.05408636  0.15474039  0.34333635  1
  F  F13  1  0.99637005  0.22934352  0.11409912  1
  F  F14  1  0.34492190  0.46507585  0.90770606  1
  F  F15  1  0.27331924  0.28054696  0.74886254  1
  F  F16  1  0.27627252  0.50666015  0.63967741  1
  F  F17  1  0.17645339  0.65482803  0.26520066  1
  F  F18  1  0.25221473  0.96760428  0.26780848  1
  F  F19  1  0.31757252  0.96536255  0.42284441  1
  F  F20  1  0.22289209  0.22678468  0.49568183  1
  F  F21  1  0.22448465  0.99308147  0.61230164  1
  F  F22  1  0.15057066  0.68743944  0.02643393  1
  F  F23  1  0.44702593  0.81104367  0.67431666  1
  F  F24  1  0.49573988  0.72547866  0.86050688  1
  F  F25  1  0.34897456  0.43241198  0.40545737  1
  F  F26  1  0.27495684  0.27461566  0.25350929  1
  F  F27  1  0.54959005  0.25438900  0.98781299  1
  F  F28  1  0.27550121  0.50495761  0.13606342  1
  F  F29  1  0.47462205  0.75397482  0.52491671  1
  F  F30  1  0.21721319  0.22317500  0.00054181  1
  F  F31  1  0.22340173  0.99569841  0.11190507  1
  F  F32  1  0.50148397  0.27396154  0.64081169  1
  F  F33  1  0.56918033  0.18427644  0.82463854  1
  F  F34  1  0.43081967  0.81572356  0.17536146  1
  F  F35  1  0.49851603  0.72603846  0.35918831  1
  F  F36  1  0.77659827  0.00430159  0.88809493  1
  F  F37  1  0.78278681  0.77682500  0.99945819  1
  F  F38  1  0.52537795  0.24602518  0.47508329  1
  F  F39  1  0.72449879  0.49504239  0.86393658  1
  F  F40  1  0.45040995  0.74561100  0.01218701  1
  F  F41  1  0.72504316  0.72538434  0.74649071  1
  F  F42  1  0.65102544  0.56758802  0.59454263  1
  F  F43  1  0.50426012  0.27452134  0.13949312  1
  F  F44  1  0.55297407  0.18895633  0.32568334  1
  F  F45  1  0.84942934  0.31256056  0.97356607  1
  F  F46  1  0.77551535  0.00691853  0.38769836  1
  F  F47  1  0.77710791  0.77321532  0.50431817  1
  F  F48  1  0.68242748  0.03463745  0.57715559  1
  F  F49  1  0.74778527  0.03239572  0.73219152  1
  F  F50  1  0.82354661  0.34517197  0.73479934  1
  F  F51  1  0.72372748  0.49333985  0.36032259  1
  F  F52  1  0.72668076  0.71945304  0.25113746  1
  F  F53  1  0.65507810  0.53492415  0.09229394  1
  F  F54  1  0.00362995  0.77065648  0.88590088  1
  F  F55  1  0.94591364  0.84525961  0.65666365  1
  F  F56  1  0.85173498  0.31308859  0.46495752  1
  F  F57  1  0.69037972  0.06874578  0.07575718  1
  F  F58  1  0.97690987  0.54742988  0.63433366  1
  F  F59  1  0.75656378  0.04923958  0.23802759  1
  F  F60  1  0.81051600  0.34790989  0.22043676  1
  F  F61  1  0.00267381  0.78470950  0.38999858  1
  F  F62  1  0.96536559  0.84817050  0.15992404  1
  F  F63  1  0.96500995  0.53502546  0.11931490  1
  Zr  Zr64  1  0.24343561  0.67569115  0.91169586  1
  Zr  Zr65  1  0.17845685  0.74783971  0.66284402  1
  Zr  Zr66  1  0.24889693  0.24811437  0.62287121  1
  Zr  Zr67  1  0.17553133  0.75049299  0.16008483  1
  Zr  Zr68  1  0.32087405  0.17580842  0.37228587  1
  Zr  Zr69  1  0.25260219  0.25117722  0.12604519  1
  Zr  Zr70  1  0.74739781  0.74882278  0.87395481  1
  Zr  Zr71  1  0.67912595  0.82419158  0.62771413  1
  Zr  Zr72  1  0.82446867  0.24950701  0.83991517  1
  Zr  Zr73  1  0.75110307  0.75188563  0.37712879  1
  Zr  Zr74  1  0.82154315  0.25216029  0.33715598  1
  Zr  Zr75  1  0.75656439  0.32430885  0.08830414  1
