# generated using pymatgen
data_In5AgTe8
_symmetry_space_group_name_H-M   'P 1'
_cell_length_a   6.32622600
_cell_length_b   6.32622600
_cell_length_c   12.84604000
_cell_angle_alpha   90.00000000
_cell_angle_beta   90.00000000
_cell_angle_gamma   90.00000000
_symmetry_Int_Tables_number   1
_chemical_formula_structural   In5AgTe8
_chemical_formula_sum   'In5 Ag1 Te8'
_cell_volume   514.11310623
_cell_formula_units_Z   1
loop_
 _symmetry_equiv_pos_site_id
 _symmetry_equiv_pos_as_xyz
  1  'x, y, z'
loop_
 _atom_site_type_symbol
 _atom_site_label
 _atom_site_symmetry_multiplicity
 _atom_site_fract_x
 _atom_site_fract_y
 _atom_site_fract_z
 _atom_site_occupancy
  In  In0  1  0.00000000  0.50000000  0.25469300  1
  In  In1  1  0.00000000  0.50000000  0.74530700  1
  In  In2  1  0.50000000  0.00000000  0.74530700  1
  In  In3  1  0.50000000  0.50000000  0.00000000  1
  In  In4  1  0.50000000  0.00000000  0.25469300  1
  Ag  Ag5  1  0.00000000  0.00000000  0.50000000  1
  Te  Te6  1  0.72926700  0.27073300  0.38659700  1
  Te  Te7  1  0.22265800  0.77734200  0.88844300  1
  Te  Te8  1  0.77734200  0.22265800  0.88844300  1
  Te  Te9  1  0.77734200  0.77734200  0.11155700  1
  Te  Te10  1  0.27073300  0.72926700  0.38659700  1
  Te  Te11  1  0.22265800  0.22265800  0.11155700  1
  Te  Te12  1  0.72926700  0.72926700  0.61340300  1
  Te  Te13  1  0.27073300  0.27073300  0.61340300  1
