# generated using pymatgen
data_Er3(Si3Ru)4
_symmetry_space_group_name_H-M   'P 1'
_cell_length_a   10.10355606
_cell_length_b   10.10355606
_cell_length_c   8.11964900
_cell_angle_alpha   90.00000000
_cell_angle_beta   90.00000000
_cell_angle_gamma   132.63566893
_symmetry_Int_Tables_number   1
_chemical_formula_structural   Er3(Si3Ru)4
_chemical_formula_sum   'Er6 Si24 Ru8'
_cell_volume   609.77848483
_cell_formula_units_Z   2
loop_
 _symmetry_equiv_pos_site_id
 _symmetry_equiv_pos_as_xyz
  1  'x, y, z'
loop_
 _atom_site_type_symbol
 _atom_site_label
 _atom_site_symmetry_multiplicity
 _atom_site_fract_x
 _atom_site_fract_y
 _atom_site_fract_z
 _atom_site_occupancy
  Er  Er0  1  0.49726700  0.99726700  0.25000000  1
  Er  Er1  1  0.00273300  0.50273300  0.75000000  1
  Er  Er2  1  0.50273300  0.00273300  0.75000000  1
  Er  Er3  1  0.99726700  0.49726700  0.25000000  1
  Er  Er4  1  0.50000000  0.50000000  0.50000000  1
  Er  Er5  1  0.00000000  0.00000000  0.00000000  1
  Si  Si6  1  0.38849800  0.15419000  0.00574500  1
  Si  Si7  1  0.65419000  0.88849800  0.49425500  1
  Si  Si8  1  0.11150200  0.34581000  0.50574500  1
  Si  Si9  1  0.84581000  0.61150200  0.99425500  1
  Si  Si10  1  0.61150200  0.84581000  0.99425500  1
  Si  Si11  1  0.34581000  0.11150200  0.50574500  1
  Si  Si12  1  0.88849800  0.65419000  0.49425500  1
  Si  Si13  1  0.15419000  0.38849800  0.00574500  1
  Si  Si14  1  0.61268300  0.37828000  0.22858500  1
  Si  Si15  1  0.87828000  0.11268300  0.27141500  1
  Si  Si16  1  0.88731700  0.12172000  0.72858500  1
  Si  Si17  1  0.62172000  0.38731700  0.77141500  1
  Si  Si18  1  0.38731700  0.62172000  0.77141500  1
  Si  Si19  1  0.12172000  0.88731700  0.72858500  1
  Si  Si20  1  0.70496600  0.29503400  0.00000000  1
  Si  Si21  1  0.79503400  0.20496600  0.50000000  1
  Si  Si22  1  0.29503400  0.70496600  0.00000000  1
  Si  Si23  1  0.20496600  0.79503400  0.50000000  1
  Si  Si24  1  0.16736000  0.16736000  0.33317600  1
  Si  Si25  1  0.66736000  0.66736000  0.16682400  1
  Si  Si26  1  0.33264000  0.33264000  0.83317600  1
  Si  Si27  1  0.83264000  0.83264000  0.66682400  1
  Si  Si28  1  0.37828000  0.61268300  0.22858500  1
  Si  Si29  1  0.11268300  0.87828000  0.27141500  1
  Ru  Ru30  1  0.62701200  0.62701200  0.87254100  1
  Ru  Ru31  1  0.12701200  0.12701200  0.62745900  1
  Ru  Ru32  1  0.87298800  0.87298800  0.37254100  1
  Ru  Ru33  1  0.37298800  0.37298800  0.12745900  1
  Ru  Ru34  1  0.33040200  0.66959800  0.50000000  1
  Ru  Ru35  1  0.16959800  0.83040200  0.00000000  1
  Ru  Ru36  1  0.66959800  0.33040200  0.50000000  1
  Ru  Ru37  1  0.83040200  0.16959800  0.00000000  1
