# generated using pymatgen
data_Rb2Cr5F17
_symmetry_space_group_name_H-M   'P 1'
_cell_length_a   13.63594069
_cell_length_b   13.63594069
_cell_length_c   14.93540100
_cell_angle_alpha   90.00000000
_cell_angle_beta   90.00000000
_cell_angle_gamma   147.78444077
_symmetry_Int_Tables_number   1
_chemical_formula_structural   Rb2Cr5F17
_chemical_formula_sum   'Rb8 Cr20 F68'
_cell_volume   1480.47372703
_cell_formula_units_Z   4
loop_
 _symmetry_equiv_pos_site_id
 _symmetry_equiv_pos_as_xyz
  1  'x, y, z'
loop_
 _atom_site_type_symbol
 _atom_site_label
 _atom_site_symmetry_multiplicity
 _atom_site_fract_x
 _atom_site_fract_y
 _atom_site_fract_z
 _atom_site_occupancy
  Rb  Rb0  1  0.00000000  0.00000000  0.00000000  1
  Rb  Rb1  1  0.75026200  0.24973800  0.96781700  1
  Rb  Rb2  1  0.75026200  0.24973800  0.53218300  1
  Rb  Rb3  1  0.24973800  0.75026200  0.46781700  1
  Rb  Rb4  1  0.24973800  0.75026200  0.03218300  1
  Rb  Rb5  1  0.74750800  0.25249200  0.25000000  1
  Rb  Rb6  1  0.00000000  0.00000000  0.50000000  1
  Rb  Rb7  1  0.25249200  0.74750800  0.75000000  1
  Cr  Cr8  1  0.37499400  0.13098200  0.12419600  1
  Cr  Cr9  1  0.62500600  0.86901800  0.62419600  1
  Cr  Cr10  1  0.12526300  0.37299000  0.12533000  1
  Cr  Cr11  1  0.62701000  0.87473700  0.37467000  1
  Cr  Cr12  1  0.25064400  0.25200600  0.25000000  1
  Cr  Cr13  1  0.12526300  0.37299000  0.37467000  1
  Cr  Cr14  1  0.37499400  0.13098200  0.37580400  1
  Cr  Cr15  1  0.87473700  0.62701000  0.62533000  1
  Cr  Cr16  1  0.74799400  0.74935600  0.25000000  1
  Cr  Cr17  1  0.86901800  0.62500600  0.37580400  1
  Cr  Cr18  1  0.13098200  0.37499400  0.87580400  1
  Cr  Cr19  1  0.37299000  0.12526300  0.62533000  1
  Cr  Cr20  1  0.62500600  0.86901800  0.87580400  1
  Cr  Cr21  1  0.62701000  0.87473700  0.12533000  1
  Cr  Cr22  1  0.13098200  0.37499400  0.62419600  1
  Cr  Cr23  1  0.25200600  0.25064400  0.75000000  1
  Cr  Cr24  1  0.74935600  0.74799400  0.75000000  1
  Cr  Cr25  1  0.86901800  0.62500600  0.12419600  1
  Cr  Cr26  1  0.87473700  0.62701000  0.87467000  1
  Cr  Cr27  1  0.37299000  0.12526300  0.87467000  1
  F  F28  1  0.43773500  0.15461900  0.75000000  1
  F  F29  1  0.56157600  0.83677500  0.75000000  1
  F  F30  1  0.25114900  0.15319900  0.34454700  1
  F  F31  1  0.10227200  0.30606800  0.49919000  1
  F  F32  1  0.10503500  0.48595100  0.90252900  1
  F  F33  1  0.01811600  0.98188400  0.75000000  1
  F  F34  1  0.88935500  0.11064500  0.34850100  1
  F  F35  1  0.51869000  0.48131000  0.25000000  1
  F  F36  1  0.84680100  0.74885100  0.15545300  1
  F  F37  1  0.43842400  0.16322500  0.25000000  1
  F  F38  1  0.39773500  0.01219500  0.89747300  1
  F  F39  1  0.74885100  0.84680100  0.84454700  1
  F  F40  1  0.10227200  0.30606800  0.00081000  1
  F  F41  1  0.89772800  0.69393200  0.99919000  1
  F  F42  1  0.15461900  0.43773500  0.25000000  1
  F  F43  1  0.86239900  0.13760100  0.64106500  1
  F  F44  1  0.34184500  0.24163400  0.84542800  1
  F  F45  1  0.39744100  0.60255900  0.60701900  1
  F  F46  1  0.39773500  0.01219500  0.60252700  1
  F  F47  1  0.89772800  0.69393200  0.50081000  1
  F  F48  1  0.86239900  0.13760100  0.85893500  1
  F  F49  1  0.84680100  0.74885100  0.34454700  1
  F  F50  1  0.75836600  0.65815500  0.84542800  1
  F  F51  1  0.69393200  0.89772800  0.49919000  1
  F  F52  1  0.39744100  0.60255900  0.89298100  1
  F  F53  1  0.75836600  0.65815500  0.65457200  1
  F  F54  1  0.10503500  0.48595100  0.59747100  1
  F  F55  1  0.15319900  0.25114900  0.65545300  1
  F  F56  1  0.60226500  0.98780500  0.39747300  1
  F  F57  1  0.25114900  0.15319900  0.15545300  1
  F  F58  1  0.98780500  0.60226500  0.89747300  1
  F  F59  1  0.69393200  0.89772800  0.00081000  1
  F  F60  1  0.60255900  0.39744100  0.10701900  1
  F  F61  1  0.89496500  0.51404900  0.40252900  1
  F  F62  1  0.30606800  0.10227200  0.50081000  1
  F  F63  1  0.84538100  0.56226500  0.75000000  1
  F  F64  1  0.34184500  0.24163400  0.65457200  1
  F  F65  1  0.60226500  0.98780500  0.10252700  1
  F  F66  1  0.11064500  0.88935500  0.84850100  1
  F  F67  1  0.11064500  0.88935500  0.65149900  1
  F  F68  1  0.63340900  0.36659100  0.59601300  1
  F  F69  1  0.56226500  0.84538100  0.25000000  1
  F  F70  1  0.48131000  0.51869000  0.75000000  1
  F  F71  1  0.01219500  0.39773500  0.10252700  1
  F  F72  1  0.51404900  0.89496500  0.59747100  1
  F  F73  1  0.13760100  0.86239900  0.35893500  1
  F  F74  1  0.63340900  0.36659100  0.90398700  1
  F  F75  1  0.98188400  0.01811600  0.25000000  1
  F  F76  1  0.24163400  0.34184500  0.15457200  1
  F  F77  1  0.48595100  0.10503500  0.09747100  1
  F  F78  1  0.36659100  0.63340900  0.40398700  1
  F  F79  1  0.65815500  0.75836600  0.15457200  1
  F  F80  1  0.15319900  0.25114900  0.84454700  1
  F  F81  1  0.65815500  0.75836600  0.34542800  1
  F  F82  1  0.36659100  0.63340900  0.09601300  1
  F  F83  1  0.48595100  0.10503500  0.40252900  1
  F  F84  1  0.98780500  0.60226500  0.60252700  1
  F  F85  1  0.24163400  0.34184500  0.34542800  1
  F  F86  1  0.13760100  0.86239900  0.14106500  1
  F  F87  1  0.16322500  0.43842400  0.75000000  1
  F  F88  1  0.01219500  0.39773500  0.39747300  1
  F  F89  1  0.51404900  0.89496500  0.90252900  1
  F  F90  1  0.83677500  0.56157600  0.25000000  1
  F  F91  1  0.88935500  0.11064500  0.15149900  1
  F  F92  1  0.30606800  0.10227200  0.99919000  1
  F  F93  1  0.89496500  0.51404900  0.09747100  1
  F  F94  1  0.74885100  0.84680100  0.65545300  1
  F  F95  1  0.60255900  0.39744100  0.39298100  1
