# generated using pymatgen
data_NpAgSeO5
_symmetry_space_group_name_H-M   'P 1'
_cell_length_a   7.21154200
_cell_length_b   8.45458556
_cell_length_c   8.45853187
_cell_angle_alpha   89.34535471
_cell_angle_beta   102.64802460
_cell_angle_gamma   102.90715958
_symmetry_Int_Tables_number   1
_chemical_formula_structural   NpAgSeO5
_chemical_formula_sum   'Np4 Ag4 Se4 O20'
_cell_volume   490.11154655
_cell_formula_units_Z   4
loop_
 _symmetry_equiv_pos_site_id
 _symmetry_equiv_pos_as_xyz
  1  'x, y, z'
loop_
 _atom_site_type_symbol
 _atom_site_label
 _atom_site_symmetry_multiplicity
 _atom_site_fract_x
 _atom_site_fract_y
 _atom_site_fract_z
 _atom_site_occupancy
  Np  Np0  1  0.50358600  0.75601700  0.25694400  1
  Np  Np1  1  0.38696100  0.71780000  0.73729200  1
  Np  Np2  1  0.61303900  0.28220000  0.26270800  1
  Np  Np3  1  0.49641400  0.24398300  0.74305600  1
  Ag  Ag4  1  0.81058100  0.02537800  0.00750000  1
  Ag  Ag5  1  0.18941900  0.97462200  0.99250000  1
  Ag  Ag6  1  0.88278000  0.09460500  0.60001300  1
  Ag  Ag7  1  0.11722000  0.90539500  0.39998700  1
  Se  Se8  1  0.09426000  0.36875000  0.88302000  1
  Se  Se9  1  0.90574000  0.63125000  0.11698000  1
  Se  Se10  1  0.84870900  0.71249400  0.65327000  1
  Se  Se11  1  0.15129100  0.28750600  0.34673000  1
  O  O12  1  0.41164300  0.70608600  0.96432600  1
  O  O13  1  0.14741700  0.74522800  0.17258500  1
  O  O14  1  0.20452600  0.21457700  0.84070100  1
  O  O15  1  0.79547400  0.78542300  0.15929900  1
  O  O16  1  0.36637300  0.73517900  0.50993000  1
  O  O17  1  0.21910600  0.17290700  0.51517800  1
  O  O18  1  0.88565900  0.51133100  0.27930600  1
  O  O19  1  0.52212000  0.98279800  0.22939300  1
  O  O20  1  0.85258300  0.25477200  0.82741500  1
  O  O21  1  0.63362700  0.26482100  0.49007000  1
  O  O22  1  0.26164300  0.20964800  0.21166300  1
  O  O23  1  0.08759500  0.82034100  0.72075000  1
  O  O24  1  0.49294100  0.53253100  0.27655100  1
  O  O25  1  0.47788000  0.01720200  0.77060700  1
  O  O26  1  0.50705900  0.46746900  0.72344900  1
  O  O27  1  0.91240500  0.17965900  0.27925000  1
  O  O28  1  0.58835700  0.29391400  0.03567400  1
  O  O29  1  0.78089400  0.82709300  0.48482200  1
  O  O30  1  0.11434100  0.48866900  0.72069400  1
  O  O31  1  0.73835700  0.79035200  0.78833700  1
