# generated using pymatgen
data_Sr4U2O9
_symmetry_space_group_name_H-M   'P 1'
_cell_length_a   8.70160400
_cell_length_b   10.55281201
_cell_length_c   12.25225160
_cell_angle_alpha   107.03355088
_cell_angle_beta   89.01377052
_cell_angle_gamma   113.35718677
_symmetry_Int_Tables_number   1
_chemical_formula_structural   Sr4U2O9
_chemical_formula_sum   'Sr16 U8 O36'
_cell_volume   981.28045811
_cell_formula_units_Z   4
loop_
 _symmetry_equiv_pos_site_id
 _symmetry_equiv_pos_as_xyz
  1  'x, y, z'
loop_
 _atom_site_type_symbol
 _atom_site_label
 _atom_site_symmetry_multiplicity
 _atom_site_fract_x
 _atom_site_fract_y
 _atom_site_fract_z
 _atom_site_occupancy
  Sr  Sr0  1  0.33587200  0.66935700  0.16466100  1
  Sr  Sr1  1  0.44088700  0.35524600  0.10137300  1
  Sr  Sr2  1  0.71584900  0.98456100  0.23977200  1
  Sr  Sr3  1  0.66412800  0.33064300  0.83533900  1
  Sr  Sr4  1  0.96208100  0.34888400  0.09015500  1
  Sr  Sr5  1  0.77933800  0.01898600  0.77051200  1
  Sr  Sr6  1  0.00000000  0.00000000  0.00000000  1
  Sr  Sr7  1  0.22066200  0.98101400  0.22948800  1
  Sr  Sr8  1  0.03791900  0.65111600  0.90984500  1
  Sr  Sr9  1  0.00000000  0.00000000  0.50000000  1
  Sr  Sr10  1  0.28415100  0.01543900  0.76022800  1
  Sr  Sr11  1  0.11148500  0.68811400  0.43516300  1
  Sr  Sr12  1  0.55911300  0.64475400  0.89862700  1
  Sr  Sr13  1  0.37509800  0.31832100  0.57307400  1
  Sr  Sr14  1  0.62490200  0.68167900  0.42692600  1
  Sr  Sr15  1  0.88851500  0.31188600  0.56483700  1
  U  U16  1  0.16971100  0.33782600  0.33535600  1
  U  U17  1  0.66603400  0.33121600  0.33258600  1
  U  U18  1  0.83270300  0.66624400  0.17044800  1
  U  U19  1  0.50000000  0.00000000  0.00000000  1
  U  U20  1  0.16729700  0.33375600  0.82955200  1
  U  U21  1  0.83028900  0.66217400  0.66464400  1
  U  U22  1  0.33396600  0.66878400  0.66741400  1
  U  U23  1  0.50000000  0.00000000  0.50000000  1
  O  O24  1  0.59943500  0.66068400  0.22152800  1
  O  O25  1  0.75301100  0.43866400  0.20428600  1
  O  O26  1  0.38269000  0.88610400  0.33135000  1
  O  O27  1  0.52348900  0.13347300  0.19275300  1
  O  O28  1  0.87863000  0.26697100  0.32907100  1
  O  O29  1  0.17951200  0.50925100  0.28313900  1
  O  O30  1  0.50898400  0.83184400  0.05598100  1
  O  O31  1  0.76425800  0.08236200  0.00103700  1
  O  O32  1  0.94031000  0.34004400  0.88400700  1
  O  O33  1  0.15483300  0.22298200  0.16215300  1
  O  O34  1  0.27547400  0.44417500  0.00377700  1
  O  O35  1  0.91050700  0.87899100  0.15137700  1
  O  O36  1  0.08949300  0.12100900  0.84862300  1
  O  O37  1  0.72452600  0.55582500  0.99622300  1
  O  O38  1  0.84516700  0.77701800  0.83784700  1
  O  O39  1  0.05969000  0.65995600  0.11599300  1
  O  O40  1  0.23574200  0.91763800  0.99896300  1
  O  O41  1  0.49101600  0.16815600  0.94401900  1
  O  O42  1  0.82048800  0.49074900  0.71686100  1
  O  O43  1  0.12137000  0.73302900  0.67092900  1
  O  O44  1  0.27272000  0.00372700  0.55472500  1
  O  O45  1  0.47651100  0.86652700  0.80724700  1
  O  O46  1  0.61731000  0.11389600  0.66865000  1
  O  O47  1  0.24698900  0.56133600  0.79571400  1
  O  O48  1  0.42148700  0.77760200  0.53872900  1
  O  O49  1  0.06565400  0.23082700  0.65470100  1
  O  O50  1  0.19069000  0.46799400  0.52112000  1
  O  O51  1  0.40056500  0.33931600  0.77847200  1
  O  O52  1  0.54094300  0.59653900  0.65544600  1
  O  O53  1  0.84155600  0.83422500  0.61172300  1
  O  O54  1  0.15844400  0.16577500  0.38827700  1
  O  O55  1  0.45905700  0.40346100  0.34455400  1
  O  O56  1  0.80931000  0.53200600  0.47888000  1
  O  O57  1  0.93434600  0.76917300  0.34529900  1
  O  O58  1  0.57851300  0.22239800  0.46127100  1
  O  O59  1  0.72728000  0.99627300  0.44527500  1
