# generated using pymatgen
data_HfGeTe4
_symmetry_space_group_name_H-M   'P 1'
_cell_length_a   8.52705025
_cell_length_b   8.52705025
_cell_length_c   11.10876700
_cell_angle_alpha   90.00000000
_cell_angle_beta   90.00000000
_cell_angle_gamma   152.73867118
_symmetry_Int_Tables_number   1
_chemical_formula_structural   HfGeTe4
_chemical_formula_sum   'Hf2 Ge2 Te8'
_cell_volume   369.97816400
_cell_formula_units_Z   2
loop_
 _symmetry_equiv_pos_site_id
 _symmetry_equiv_pos_as_xyz
  1  'x, y, z'
loop_
 _atom_site_type_symbol
 _atom_site_label
 _atom_site_symmetry_multiplicity
 _atom_site_fract_x
 _atom_site_fract_y
 _atom_site_fract_z
 _atom_site_occupancy
  Hf  Hf0  1  0.65315800  0.34684200  0.27202500  1
  Hf  Hf1  1  0.34684200  0.65315800  0.77202500  1
  Ge  Ge2  1  0.77122900  0.22877100  0.46091500  1
  Ge  Ge3  1  0.22877100  0.77122900  0.96091500  1
  Te  Te4  1  0.72529500  0.27470500  0.69832900  1
  Te  Te5  1  0.62167700  0.37832300  0.00095200  1
  Te  Te6  1  0.27470500  0.72529500  0.19832900  1
  Te  Te7  1  0.02220100  0.97779900  0.24106800  1
  Te  Te8  1  0.89645600  0.10354400  0.95887100  1
  Te  Te9  1  0.10354400  0.89645600  0.45887100  1
  Te  Te10  1  0.97779900  0.02220100  0.74106800  1
  Te  Te11  1  0.37832300  0.62167700  0.50095200  1
