# generated using pymatgen
data_FeTe2ClO5
_symmetry_space_group_name_H-M   'P 1'
_cell_length_a   6.69946100
_cell_length_b   13.35427100
_cell_length_c   14.41736465
_cell_angle_alpha   71.71063044
_cell_angle_beta   90.00000000
_cell_angle_gamma   90.00000000
_symmetry_Int_Tables_number   1
_chemical_formula_structural   FeTe2ClO5
_chemical_formula_sum   'Fe8 Te16 Cl8 O40'
_cell_volume   1224.71053427
_cell_formula_units_Z   8
loop_
 _symmetry_equiv_pos_site_id
 _symmetry_equiv_pos_as_xyz
  1  'x, y, z'
loop_
 _atom_site_type_symbol
 _atom_site_label
 _atom_site_symmetry_multiplicity
 _atom_site_fract_x
 _atom_site_fract_y
 _atom_site_fract_z
 _atom_site_occupancy
  Fe  Fe0  1  0.99568000  0.11935700  0.02139000  1
  Fe  Fe1  1  0.49568000  0.88064300  0.47861000  1
  Fe  Fe2  1  0.00432000  0.88064300  0.97861000  1
  Fe  Fe3  1  0.79028200  0.93524600  0.64454000  1
  Fe  Fe4  1  0.70971800  0.93524600  0.14454000  1
  Fe  Fe5  1  0.29028200  0.06475400  0.85546000  1
  Fe  Fe6  1  0.50432000  0.11935700  0.52139000  1
  Fe  Fe7  1  0.20971800  0.06475400  0.35546000  1
  Te  Te8  1  0.80678000  0.11114800  0.78499200  1
  Te  Te9  1  0.02277000  0.37079000  0.85844800  1
  Te  Te10  1  0.69322000  0.11114800  0.28499200  1
  Te  Te11  1  0.01461000  0.79987600  0.52148900  1
  Te  Te12  1  0.97723000  0.62921000  0.14155200  1
  Te  Te13  1  0.30678000  0.88885200  0.71500800  1
  Te  Te14  1  0.79584200  0.71426100  0.86124400  1
  Te  Te15  1  0.20415800  0.28573900  0.13875600  1
  Te  Te16  1  0.98539000  0.20012400  0.47851100  1
  Te  Te17  1  0.51461000  0.20012400  0.97851100  1
  Te  Te18  1  0.70415800  0.71426100  0.36124400  1
  Te  Te19  1  0.29584200  0.28573900  0.63875600  1
  Te  Te20  1  0.52277000  0.62921000  0.64155200  1
  Te  Te21  1  0.19322000  0.88885200  0.21500800  1
  Te  Te22  1  0.47723000  0.37079000  0.35844800  1
  Te  Te23  1  0.48539000  0.79987600  0.02148900  1
  Cl  Cl24  1  0.12814200  0.61124700  0.78176300  1
  Cl  Cl25  1  0.87185800  0.38875300  0.21823700  1
  Cl  Cl26  1  0.37185800  0.61124700  0.28176300  1
  Cl  Cl27  1  0.62814200  0.38875300  0.71823700  1
  Cl  Cl28  1  0.21592900  0.56330700  0.05040100  1
  Cl  Cl29  1  0.71592900  0.43669300  0.44959900  1
  Cl  Cl30  1  0.28407100  0.56330700  0.55040100  1
  Cl  Cl31  1  0.78407100  0.43669300  0.94959900  1
  O  O32  1  0.22875900  0.21518200  0.77278300  1
  O  O33  1  0.01180500  0.18905500  0.12100300  1
  O  O34  1  0.24829700  0.01278200  0.24525100  1
  O  O35  1  0.25170300  0.01278200  0.74525100  1
  O  O36  1  0.28265200  0.11397900  0.97977400  1
  O  O37  1  0.48819500  0.18905500  0.62100300  1
  O  O38  1  0.55352400  0.78333500  0.89428500  1
  O  O39  1  0.75170300  0.98721800  0.75474900  1
  O  O40  1  0.07379500  0.89876400  0.63700800  1
  O  O41  1  0.98568600  0.03841100  0.89694700  1
  O  O42  1  0.98819500  0.81094500  0.87899700  1
  O  O43  1  0.51180500  0.81094500  0.37899700  1
  O  O44  1  0.27124100  0.21518200  0.27278200  1
  O  O45  1  0.42620500  0.89876400  0.13700800  1
  O  O46  1  0.22772000  0.34271500  0.95085600  1
  O  O47  1  0.92620500  0.10123600  0.36299200  1
  O  O48  1  0.57379500  0.10123600  0.86299200  1
  O  O49  1  0.90088900  0.23364700  0.90604700  1
  O  O50  1  0.72772000  0.65728500  0.54914400  1
  O  O51  1  0.30130600  0.90947700  0.94817800  1
  O  O52  1  0.21734800  0.11397900  0.47977400  1
  O  O53  1  0.48568600  0.96158900  0.60305300  1
  O  O54  1  0.71734800  0.88602100  0.02022600  1
  O  O55  1  0.69869400  0.09052300  0.05182200  1
  O  O56  1  0.44647600  0.21666500  0.10571500  1
  O  O57  1  0.74829700  0.98721800  0.25474900  1
  O  O58  1  0.19869400  0.90947700  0.44817800  1
  O  O59  1  0.51431400  0.03841100  0.39694700  1
  O  O60  1  0.05352400  0.21666500  0.60571500  1
  O  O61  1  0.59911100  0.23364700  0.40604700  1
  O  O62  1  0.77124100  0.78481800  0.22721700  1
  O  O63  1  0.78265200  0.88602100  0.52022600  1
  O  O64  1  0.72875900  0.78481800  0.72721700  1
  O  O65  1  0.80130600  0.09052300  0.55182200  1
  O  O66  1  0.09911100  0.76635300  0.09395300  1
  O  O67  1  0.27228000  0.34271500  0.45085600  1
  O  O68  1  0.94647600  0.78333500  0.39428500  1
  O  O69  1  0.77228000  0.65728500  0.04914400  1
  O  O70  1  0.01431400  0.96158900  0.10305300  1
  O  O71  1  0.40088900  0.76635300  0.59395300  1
