# generated using pymatgen
data_RuOF4
_symmetry_space_group_name_H-M   'P 1'
_cell_length_a   8.84944900
_cell_length_b   6.26700100
_cell_length_c   8.90844145
_cell_angle_alpha   46.63604217
_cell_angle_beta   90.00000000
_cell_angle_gamma   90.00000000
_symmetry_Int_Tables_number   1
_chemical_formula_structural   RuOF4
_chemical_formula_sum   'Ru4 O4 F16'
_cell_volume   359.18332250
_cell_formula_units_Z   4
loop_
 _symmetry_equiv_pos_site_id
 _symmetry_equiv_pos_as_xyz
  1  'x, y, z'
loop_
 _atom_site_type_symbol
 _atom_site_label
 _atom_site_symmetry_multiplicity
 _atom_site_fract_x
 _atom_site_fract_y
 _atom_site_fract_z
 _atom_site_occupancy
  Ru  Ru0  1  0.82219400  0.80531600  0.14907200  1
  Ru  Ru1  1  0.67780600  0.80531600  0.64907200  1
  Ru  Ru2  1  0.32219400  0.19468400  0.35092800  1
  Ru  Ru3  1  0.17780600  0.19468400  0.85092800  1
  O  O4  1  0.36320000  0.17659100  0.86073800  1
  O  O5  1  0.86320000  0.82340900  0.63926200  1
  O  O6  1  0.13680000  0.17659100  0.36073800  1
  O  O7  1  0.63680000  0.82340900  0.13926200  1
  F  F8  1  0.11155700  0.83827000  0.11932200  1
  F  F9  1  0.12319400  0.54771600  0.58838100  1
  F  F10  1  0.87918300  0.61503400  0.06259200  1
  F  F11  1  0.62319400  0.45228400  0.91161900  1
  F  F12  1  0.62081700  0.61503400  0.56259200  1
  F  F13  1  0.87680600  0.45228400  0.41161900  1
  F  F14  1  0.61470500  0.98116000  0.74442400  1
  F  F15  1  0.38844300  0.83827000  0.61932200  1
  F  F16  1  0.37680600  0.54771600  0.08838100  1
  F  F17  1  0.88844300  0.16173000  0.88067800  1
  F  F18  1  0.38529500  0.01884000  0.25557600  1
  F  F19  1  0.61155700  0.16173000  0.38067800  1
  F  F20  1  0.12081700  0.38496600  0.93740800  1
  F  F21  1  0.37918300  0.38496600  0.43740800  1
  F  F22  1  0.88529500  0.98116000  0.24442400  1
  F  F23  1  0.11470500  0.01884000  0.75557600  1
