# generated using pymatgen
data_CsZnB(PO4)2
_symmetry_space_group_name_H-M   'P 1'
_cell_length_a   7.60463539
_cell_length_b   8.01876342
_cell_length_c   8.13602294
_cell_angle_alpha   117.78399450
_cell_angle_beta   102.88804160
_cell_angle_gamma   104.68857408
_symmetry_Int_Tables_number   1
_chemical_formula_structural   CsZnB(PO4)2
_chemical_formula_sum   'Cs2 Zn2 B2 P4 O16'
_cell_volume   389.37487359
_cell_formula_units_Z   2
loop_
 _symmetry_equiv_pos_site_id
 _symmetry_equiv_pos_as_xyz
  1  'x, y, z'
loop_
 _atom_site_type_symbol
 _atom_site_label
 _atom_site_symmetry_multiplicity
 _atom_site_fract_x
 _atom_site_fract_y
 _atom_site_fract_z
 _atom_site_occupancy
  Cs  Cs0  1  0.26446634  0.64731141  0.40507116  1
  Cs  Cs1  1  0.73553366  0.35268859  0.59492884  1
  Zn  Zn2  1  0.20290493  0.29312768  0.74283879  1
  Zn  Zn3  1  0.79709507  0.70687232  0.25716121  1
  B  B4  1  0.70229467  0.93385910  0.93136034  1
  B  B5  1  0.29770533  0.06614090  0.06863966  1
  P  P6  1  0.55760767  0.22861149  0.93761918  1
  P  P7  1  0.96024105  0.90302040  0.72886779  1
  P  P8  1  0.03975895  0.09697960  0.27113221  1
  P  P9  1  0.44239233  0.77138851  0.06238082  1
  O  O10  1  0.39937369  0.96940951  0.14918160  1
  O  O11  1  0.09536130  0.27526008  0.48802558  1
  O  O12  1  0.45229134  0.23851294  0.08626678  1
  O  O13  1  0.75001158  0.42430026  0.05385434  1
  O  O14  1  0.60062631  0.03059049  0.85081840  1
  O  O15  1  0.58148459  0.79753969  0.25039174  1
  O  O16  1  0.98661631  0.11172256  0.75924138  1
  O  O17  1  0.01338369  0.88827744  0.24075862  1
  O  O18  1  0.90463870  0.72473992  0.51197442  1
  O  O19  1  0.20770067  0.17122841  0.20552747  1
  O  O20  1  0.54770866  0.76148706  0.91373322  1
  O  O21  1  0.41851541  0.20246031  0.74960826  1
  O  O22  1  0.15466954  0.91089045  0.85809587  1
  O  O23  1  0.24998842  0.57569974  0.94614566  1
  O  O24  1  0.79229933  0.82877159  0.79447253  1
  O  O25  1  0.84533046  0.08910955  0.14190413  1
