# generated using pymatgen
data_Rb4CuSi2O7
_symmetry_space_group_name_H-M   'P 1'
_cell_length_a   6.37319549
_cell_length_b   7.21984369
_cell_length_c   7.29564618
_cell_angle_alpha   114.54806640
_cell_angle_beta   100.23258350
_cell_angle_gamma   108.12026019
_symmetry_Int_Tables_number   1
_chemical_formula_structural   Rb4CuSi2O7
_chemical_formula_sum   'Rb4 Cu1 Si2 O7'
_cell_volume   271.31420705
_cell_formula_units_Z   1
loop_
 _symmetry_equiv_pos_site_id
 _symmetry_equiv_pos_as_xyz
  1  'x, y, z'
loop_
 _atom_site_type_symbol
 _atom_site_label
 _atom_site_symmetry_multiplicity
 _atom_site_fract_x
 _atom_site_fract_y
 _atom_site_fract_z
 _atom_site_occupancy
  Rb  Rb0  1  0.32243202  0.07747671  0.71510866  1
  Rb  Rb1  1  0.67756798  0.92252329  0.28489134  1
  Rb  Rb2  1  0.93144641  0.45650234  0.22187975  1
  Rb  Rb3  1  0.06855359  0.54349766  0.77812025  1
  Cu  Cu4  1  0.50000000  0.50000000  0.50000000  1
  Si  Si5  1  0.21539155  0.08014880  0.22322058  1
  Si  Si6  1  0.78460845  0.91985120  0.77677942  1
  O  O7  1  0.47344722  0.24105567  0.23241451  1
  O  O8  1  0.81688670  0.73097598  0.56747895  1
  O  O9  1  0.18311330  0.26902402  0.43252105  1
  O  O10  1  0.79752687  0.14148983  0.76559134  1
  O  O11  1  0.20247313  0.85851017  0.23440866  1
  O  O12  1  0.52655278  0.75894433  0.76758549  1
  O  O13  1  0.00000000  0.00000000  0.00000000  1
