# generated using pymatgen
data_EuCu(MoO4)2
_symmetry_space_group_name_H-M   'P 1'
_cell_length_a   10.06502000
_cell_length_b   10.58264900
_cell_length_c   15.07684600
_cell_angle_alpha   90.00000000
_cell_angle_beta   90.00000000
_cell_angle_gamma   90.00000000
_symmetry_Int_Tables_number   1
_chemical_formula_structural   EuCu(MoO4)2
_chemical_formula_sum   'Eu8 Cu8 Mo16 O64'
_cell_volume   1605.90382651
_cell_formula_units_Z   8
loop_
 _symmetry_equiv_pos_site_id
 _symmetry_equiv_pos_as_xyz
  1  'x, y, z'
loop_
 _atom_site_type_symbol
 _atom_site_label
 _atom_site_symmetry_multiplicity
 _atom_site_fract_x
 _atom_site_fract_y
 _atom_site_fract_z
 _atom_site_occupancy
  Eu  Eu0  1  0.27553500  0.96628200  0.39846700  1
  Eu  Eu1  1  0.77553500  0.53371800  0.39846700  1
  Eu  Eu2  1  0.77553500  0.03371800  0.10153300  1
  Eu  Eu3  1  0.72446500  0.53371800  0.89846700  1
  Eu  Eu4  1  0.22446500  0.96628200  0.89846700  1
  Eu  Eu5  1  0.27553500  0.46628200  0.10153300  1
  Eu  Eu6  1  0.22446500  0.46628200  0.60153300  1
  Eu  Eu7  1  0.72446500  0.03371800  0.60153300  1
  Cu  Cu8  1  0.19765200  0.81611700  0.70044900  1
  Cu  Cu9  1  0.30234800  0.31611700  0.29955100  1
  Cu  Cu10  1  0.80234800  0.68388300  0.20044900  1
  Cu  Cu11  1  0.69765200  0.18388300  0.79955100  1
  Cu  Cu12  1  0.69765200  0.68388300  0.70044900  1
  Cu  Cu13  1  0.80234800  0.18388300  0.29955100  1
  Cu  Cu14  1  0.19765200  0.31611700  0.79955100  1
  Cu  Cu15  1  0.30234800  0.81611700  0.20044900  1
  Mo  Mo16  1  0.66859100  0.89639400  0.34542300  1
  Mo  Mo17  1  0.33140900  0.60360600  0.84542300  1
  Mo  Mo18  1  0.50040100  0.27757600  0.44348700  1
  Mo  Mo19  1  0.00040100  0.22242400  0.44348700  1
  Mo  Mo20  1  0.49959900  0.72242400  0.55651300  1
  Mo  Mo21  1  0.83140900  0.89639400  0.84542300  1
  Mo  Mo22  1  0.49959900  0.22242400  0.94348700  1
  Mo  Mo23  1  0.00040100  0.72242400  0.05651300  1
  Mo  Mo24  1  0.16859100  0.60360600  0.34542300  1
  Mo  Mo25  1  0.99959900  0.27757600  0.94348700  1
  Mo  Mo26  1  0.16859100  0.10360600  0.15457700  1
  Mo  Mo27  1  0.33140900  0.10360600  0.65457700  1
  Mo  Mo28  1  0.99959900  0.77757600  0.55651300  1
  Mo  Mo29  1  0.66859100  0.39639400  0.15457700  1
  Mo  Mo30  1  0.83140900  0.39639400  0.65457700  1
  Mo  Mo31  1  0.50040100  0.77757600  0.05651300  1
  O  O32  1  0.40308700  0.11663200  0.87682300  1
  O  O33  1  0.49386400  0.90997100  0.33280200  1
  O  O34  1  0.74791300  0.01436000  0.77539600  1
  O  O35  1  0.75208700  0.51436000  0.22460400  1
  O  O36  1  0.58969900  0.13608800  0.02491500  1
  O  O37  1  0.79060100  0.42066100  0.54179400  1
  O  O38  1  0.61542100  0.80973200  0.63138800  1
  O  O39  1  0.75208700  0.01436000  0.27539600  1
  O  O40  1  0.29060100  0.57933900  0.95820600  1
  O  O41  1  0.10782100  0.83369600  0.00525500  1
  O  O42  1  0.09691300  0.11663200  0.37682300  1
  O  O43  1  0.11542100  0.69026800  0.63138800  1
  O  O44  1  0.60782100  0.66630400  0.00525500  1
  O  O45  1  0.24791300  0.98564000  0.72460400  1
  O  O46  1  0.50613600  0.59002900  0.83280200  1
  O  O47  1  0.89217900  0.16630400  0.99474500  1
  O  O48  1  0.72727400  0.23872800  0.18551900  1
  O  O49  1  0.70939900  0.92066100  0.45820600  1
  O  O50  1  0.88457900  0.80973200  0.13138800  1
  O  O51  1  0.79060100  0.92066100  0.95820600  1
  O  O52  1  0.90308700  0.88336800  0.62317700  1
  O  O53  1  0.25208700  0.48564000  0.27539600  1
  O  O54  1  0.38457900  0.19026800  0.36861200  1
  O  O55  1  0.59691300  0.88336800  0.12317700  1
  O  O56  1  0.09691300  0.61663200  0.12317700  1
  O  O57  1  0.41030100  0.36391200  0.52491500  1
  O  O58  1  0.08969900  0.86391200  0.47508500  1
  O  O59  1  0.25208700  0.98564000  0.22460400  1
  O  O60  1  0.99386400  0.59002900  0.33280200  1
  O  O61  1  0.58969900  0.63608800  0.47508500  1
  O  O62  1  0.61542100  0.30973200  0.86861200  1
  O  O63  1  0.99386400  0.09002900  0.16719800  1
  O  O64  1  0.91030100  0.63608800  0.97508500  1
  O  O65  1  0.91030100  0.13608800  0.52491500  1
  O  O66  1  0.27272600  0.76127200  0.81448100  1
  O  O67  1  0.08969900  0.36391200  0.02491500  1
  O  O68  1  0.40308700  0.61663200  0.62317700  1
  O  O69  1  0.60782100  0.16630400  0.49474500  1
  O  O70  1  0.10782100  0.33369600  0.49474500  1
  O  O71  1  0.00613600  0.90997100  0.83280200  1
  O  O72  1  0.70939900  0.42066100  0.04179400  1
  O  O73  1  0.39217900  0.33369600  0.99474500  1
  O  O74  1  0.24791300  0.48564000  0.77539600  1
  O  O75  1  0.00613600  0.40997100  0.66719800  1
  O  O76  1  0.88457900  0.30973200  0.36861200  1
  O  O77  1  0.38457900  0.69026800  0.13138800  1
  O  O78  1  0.90308700  0.38336800  0.87682300  1
  O  O79  1  0.72727400  0.73872800  0.31448100  1
  O  O80  1  0.22727400  0.26127200  0.18551900  1
  O  O81  1  0.49386400  0.40997100  0.16719800  1
  O  O82  1  0.77272600  0.23872800  0.68551900  1
  O  O83  1  0.89217900  0.66630400  0.50525500  1
  O  O84  1  0.22727400  0.76127200  0.31448100  1
  O  O85  1  0.74791300  0.51436000  0.72460400  1
  O  O86  1  0.20939900  0.57933900  0.45820600  1
  O  O87  1  0.20939900  0.07933900  0.04179400  1
  O  O88  1  0.77272600  0.73872800  0.81448100  1
  O  O89  1  0.59691300  0.38336800  0.37682300  1
  O  O90  1  0.39217900  0.83369600  0.50525500  1
  O  O91  1  0.11542100  0.19026800  0.86861200  1
  O  O92  1  0.27272600  0.26127200  0.68551900  1
  O  O93  1  0.29060100  0.07933900  0.54179400  1
  O  O94  1  0.50613600  0.09002900  0.66719800  1
  O  O95  1  0.41030100  0.86391200  0.97508500  1
