# generated using pymatgen
data_Sn3Te3Ir2
_symmetry_space_group_name_H-M   'P 1'
_cell_length_a   9.47555989
_cell_length_b   9.47555989
_cell_length_c   9.47555907
_cell_angle_alpha   89.93265734
_cell_angle_beta   89.93265734
_cell_angle_gamma   89.93265841
_symmetry_Int_Tables_number   1
_chemical_formula_structural   Sn3Te3Ir2
_chemical_formula_sum   'Sn12 Te12 Ir8'
_cell_volume   850.77301526
_cell_formula_units_Z   4
loop_
 _symmetry_equiv_pos_site_id
 _symmetry_equiv_pos_as_xyz
  1  'x, y, z'
loop_
 _atom_site_type_symbol
 _atom_site_label
 _atom_site_symmetry_multiplicity
 _atom_site_fract_x
 _atom_site_fract_y
 _atom_site_fract_z
 _atom_site_occupancy
  Sn  Sn0  1  0.17429500  0.66059800  0.50031300  1
  Sn  Sn1  1  0.82570500  0.33940200  0.49968700  1
  Sn  Sn2  1  0.33940200  0.49968700  0.82570500  1
  Sn  Sn3  1  0.49968700  0.82570500  0.33940200  1
  Sn  Sn4  1  0.66059800  0.50031300  0.17429500  1
  Sn  Sn5  1  0.50031300  0.17429500  0.66059800  1
  Sn  Sn6  1  0.32523600  0.16000600  0.99859700  1
  Sn  Sn7  1  0.16000600  0.99859700  0.32523600  1
  Sn  Sn8  1  0.00140300  0.67476400  0.83999400  1
  Sn  Sn9  1  0.83999400  0.00140300  0.67476400  1
  Sn  Sn10  1  0.67476400  0.83999400  0.00140300  1
  Sn  Sn11  1  0.99859700  0.32523600  0.16000600  1
  Te  Te12  1  0.84937800  0.99989400  0.34532500  1
  Te  Te13  1  0.34532500  0.84937800  0.99989400  1
  Te  Te14  1  0.49808400  0.15458600  0.34988900  1
  Te  Te15  1  0.34988900  0.49808400  0.15458600  1
  Te  Te16  1  0.84541400  0.65011100  0.50191600  1
  Te  Te17  1  0.15458600  0.34988900  0.49808400  1
  Te  Te18  1  0.50191600  0.84541400  0.65011100  1
  Te  Te19  1  0.65011100  0.50191600  0.84541400  1
  Te  Te20  1  0.00010600  0.65467500  0.15062200  1
  Te  Te21  1  0.15062200  0.00010600  0.65467500  1
  Te  Te22  1  0.65467500  0.15062200  0.00010600  1
  Te  Te23  1  0.99989400  0.34532500  0.84937800  1
  Ir  Ir24  1  0.75189400  0.75167000  0.25235100  1
  Ir  Ir25  1  0.75167000  0.25235100  0.75189400  1
  Ir  Ir26  1  0.25235100  0.75189400  0.75167000  1
  Ir  Ir27  1  0.24810600  0.24833000  0.74764900  1
  Ir  Ir28  1  0.24833000  0.74764900  0.24810600  1
  Ir  Ir29  1  0.74764900  0.24810600  0.24833000  1
  Ir  Ir30  1  0.25109000  0.25109000  0.25109000  1
  Ir  Ir31  1  0.74891000  0.74891000  0.74891000  1
