# generated using pymatgen
data_Y9C4I8O
_symmetry_space_group_name_H-M   'P 1'
_cell_length_a   3.86181100
_cell_length_b   11.36699400
_cell_length_c   29.16767900
_cell_angle_alpha   90.00000000
_cell_angle_beta   90.00000000
_cell_angle_gamma   90.00000000
_symmetry_Int_Tables_number   1
_chemical_formula_structural   Y9C4I8O
_chemical_formula_sum   'Y18 C8 I16 O2'
_cell_volume   1280.37892718
_cell_formula_units_Z   2
loop_
 _symmetry_equiv_pos_site_id
 _symmetry_equiv_pos_as_xyz
  1  'x, y, z'
loop_
 _atom_site_type_symbol
 _atom_site_label
 _atom_site_symmetry_multiplicity
 _atom_site_fract_x
 _atom_site_fract_y
 _atom_site_fract_z
 _atom_site_occupancy
  Y  Y0  1  0.50000000  0.73643900  0.06577300  1
  Y  Y1  1  0.00000000  0.39914400  0.77925500  1
  Y  Y2  1  0.50000000  0.45393900  0.50000000  1
  Y  Y3  1  0.00000000  0.26356100  0.56577300  1
  Y  Y4  1  0.50000000  0.60085600  0.27925500  1
  Y  Y5  1  0.00000000  0.39914400  0.22074500  1
  Y  Y6  1  0.00000000  0.54606100  0.00000000  1
  Y  Y7  1  0.50000000  0.47016500  0.88590900  1
  Y  Y8  1  0.50000000  0.60085600  0.72074500  1
  Y  Y9  1  0.00000000  0.52983500  0.38590900  1
  Y  Y10  1  0.50000000  0.47016500  0.11409100  1
  Y  Y11  1  0.00000000  0.52983500  0.61409100  1
  Y  Y12  1  0.50000000  0.32609800  0.32872900  1
  Y  Y13  1  0.50000000  0.32609800  0.67127100  1
  Y  Y14  1  0.50000000  0.73643900  0.93422700  1
  Y  Y15  1  0.00000000  0.26356100  0.43422700  1
  Y  Y16  1  0.00000000  0.67390200  0.17127100  1
  Y  Y17  1  0.00000000  0.67390200  0.82872900  1
  C  C18  1  0.50000000  0.53648100  0.19483200  1
  C  C19  1  0.00000000  0.46351900  0.30516800  1
  C  C20  1  0.00000000  0.60989000  0.08817500  1
  C  C21  1  0.00000000  0.60989000  0.91182500  1
  C  C22  1  0.50000000  0.39011000  0.41182500  1
  C  C23  1  0.50000000  0.53648100  0.80516800  1
  C  C24  1  0.50000000  0.39011000  0.58817500  1
  C  C25  1  0.00000000  0.46351900  0.69483200  1
  I  I26  1  0.00000000  0.10296300  0.35277300  1
  I  I27  1  0.00000000  0.25997800  0.87693200  1
  I  I28  1  0.00000000  0.81332200  0.73803300  1
  I  I29  1  0.00000000  0.25997800  0.12306800  1
  I  I30  1  0.50000000  0.74002200  0.37693200  1
  I  I31  1  0.50000000  0.18667800  0.76196700  1
  I  I32  1  0.00000000  0.66561800  0.50000000  1
  I  I33  1  0.00000000  0.10296300  0.64722700  1
  I  I34  1  0.50000000  0.18667800  0.23803300  1
  I  I35  1  0.50000000  0.74002200  0.62306800  1
  I  I36  1  0.50000000  0.89703700  0.14722700  1
  I  I37  1  0.50000000  0.89703700  0.85277300  1
  I  I38  1  0.00000000  0.81332200  0.26196700  1
  I  I39  1  0.50000000  0.33438200  0.00000000  1
  I  I40  1  0.00000000  0.90675900  0.00000000  1
  I  I41  1  0.50000000  0.09324100  0.50000000  1
  O  O42  1  0.50000000  0.64333900  0.00000000  1
  O  O43  1  0.00000000  0.35666100  0.50000000  1
