# generated using pymatgen
data_Fe4(P2O7)3
_symmetry_space_group_name_H-M   'P 1'
_cell_length_a   21.70791300
_cell_length_b   7.52739800
_cell_length_c   9.67562069
_cell_angle_alpha   89.86543005
_cell_angle_beta   90.00000000
_cell_angle_gamma   90.00000000
_symmetry_Int_Tables_number   1
_chemical_formula_structural   Fe4(P2O7)3
_chemical_formula_sum   'Fe16 P24 O84'
_cell_volume   1581.03173825
_cell_formula_units_Z   4
loop_
 _symmetry_equiv_pos_site_id
 _symmetry_equiv_pos_as_xyz
  1  'x, y, z'
loop_
 _atom_site_type_symbol
 _atom_site_label
 _atom_site_symmetry_multiplicity
 _atom_site_fract_x
 _atom_site_fract_y
 _atom_site_fract_z
 _atom_site_occupancy
  Fe  Fe0  1  0.25254800  0.94104600  0.77717200  1
  Fe  Fe1  1  0.50190400  0.96069600  0.26553600  1
  Fe  Fe2  1  0.74745200  0.05895400  0.22282800  1
  Fe  Fe3  1  0.49809600  0.03930400  0.73446400  1
  Fe  Fe4  1  0.49350300  0.55270200  0.25497200  1
  Fe  Fe5  1  0.24745200  0.44104600  0.27717200  1
  Fe  Fe6  1  0.24111700  0.03246100  0.29299700  1
  Fe  Fe7  1  0.75254800  0.55895400  0.72282800  1
  Fe  Fe8  1  0.75888300  0.96753900  0.70700300  1
  Fe  Fe9  1  0.00649700  0.05270200  0.75497200  1
  Fe  Fe10  1  0.25888300  0.53246100  0.79299700  1
  Fe  Fe11  1  0.99350300  0.94729800  0.24502800  1
  Fe  Fe12  1  0.00190400  0.53930400  0.23446400  1
  Fe  Fe13  1  0.50649700  0.44729800  0.74502800  1
  Fe  Fe14  1  0.99809600  0.46069600  0.76553600  1
  Fe  Fe15  1  0.74111700  0.46753900  0.20700300  1
  P  P16  1  0.43842800  0.25076400  0.47232000  1
  P  P17  1  0.29953500  0.23716800  0.55447100  1
  P  P18  1  0.14139300  0.23884200  0.84427900  1
  P  P19  1  0.61083000  0.26262200  0.33188300  1
  P  P20  1  0.95359600  0.24888200  0.46906500  1
  P  P21  1  0.06157200  0.75076400  0.97232000  1
  P  P22  1  0.68618500  0.76781000  0.99389300  1
  P  P23  1  0.56157200  0.74923600  0.52768000  1
  P  P24  1  0.38917000  0.73737800  0.66811700  1
  P  P25  1  0.20046500  0.73716800  0.05447100  1
  P  P26  1  0.18618500  0.73219000  0.50610700  1
  P  P27  1  0.35860700  0.73884200  0.34427900  1
  P  P28  1  0.31381500  0.23219000  0.00610700  1
  P  P29  1  0.54640400  0.74888200  0.96906500  1
  P  P30  1  0.85860700  0.76115800  0.15572100  1
  P  P31  1  0.45359600  0.25111800  0.03093500  1
  P  P32  1  0.04640400  0.75111800  0.53093500  1
  P  P33  1  0.88917000  0.76262200  0.83188300  1
  P  P34  1  0.79953500  0.26283200  0.94552900  1
  P  P35  1  0.64139300  0.26115800  0.65572100  1
  P  P36  1  0.11083000  0.23737800  0.16811700  1
  P  P37  1  0.70046500  0.76283200  0.44552900  1
  P  P38  1  0.81381500  0.26781000  0.49389300  1
  P  P39  1  0.93842800  0.24923600  0.02768000  1
  O  O40  1  0.32474800  0.57023000  0.29785000  1
  O  O41  1  0.94919900  0.07919900  0.10663500  1
  O  O42  1  0.73374500  0.76085400  0.58685800  1
  O  O43  1  0.68036700  0.09295300  0.67145200  1
  O  O44  1  0.78157500  0.10094400  0.86423900  1
  O  O45  1  0.17190700  0.23479800  0.25069700  1
  O  O46  1  0.20674700  0.57453000  0.42077500  1
  O  O47  1  0.97704000  0.25333500  0.89340800  1
  O  O48  1  0.87198700  0.78833500  0.99258800  1
  O  O49  1  0.42934600  0.57938400  0.71033300  1
  O  O50  1  0.01018900  0.61086300  0.60877000  1
  O  O51  1  0.81049500  0.08954500  0.56924500  1
  O  O52  1  0.79010000  0.44065100  0.87702700  1
  O  O53  1  0.76625500  0.26085400  0.08685800  1
  O  O54  1  0.02296000  0.74666500  0.10659200  1
  O  O55  1  0.94624500  0.41901400  0.10947600  1
  O  O56  1  0.36991200  0.25978700  0.52410300  1
  O  O57  1  0.71842500  0.60094400  0.36423900  1
  O  O58  1  0.70674700  0.92547000  0.07922500  1
  O  O59  1  0.29010000  0.05934900  0.62297300  1
  O  O60  1  0.47083500  0.25031200  0.87435800  1
  O  O61  1  0.67525200  0.42977000  0.70215000  1
  O  O62  1  0.28301600  0.23825600  0.14991800  1
  O  O63  1  0.13008800  0.75978700  0.02410300  1
  O  O64  1  0.07918200  0.25309700  0.76650900  1
  O  O65  1  0.44624500  0.08098600  0.39052400  1
  O  O66  1  0.18950500  0.91045500  0.43075500  1
  O  O67  1  0.61575400  0.81397100  0.95941300  1
  O  O68  1  0.20990000  0.55934900  0.12297300  1
  O  O69  1  0.57918200  0.24690300  0.73349100  1
  O  O70  1  0.02916500  0.75031200  0.37435800  1
  O  O71  1  0.63008800  0.74021300  0.47589700  1
  O  O72  1  0.79325300  0.42547000  0.57922500  1
  O  O73  1  0.57832900  0.08254000  0.31825000  1
  O  O74  1  0.42081800  0.75309700  0.26650900  1
  O  O75  1  0.82809300  0.76520200  0.74930300  1
  O  O76  1  0.67190700  0.26520200  0.24930300  1
  O  O77  1  0.51018900  0.88913700  0.89123000  1
  O  O78  1  0.52916500  0.74968800  0.12564200  1
  O  O79  1  0.92934600  0.92061600  0.78966700  1
  O  O80  1  0.26625500  0.23914600  0.41314200  1
  O  O81  1  0.86991200  0.24021300  0.97589700  1
  O  O82  1  0.07832900  0.41746000  0.18175000  1
  O  O83  1  0.98981100  0.38913700  0.39123000  1
  O  O84  1  0.44919900  0.42080100  0.39336500  1
  O  O85  1  0.31963300  0.90704700  0.32854800  1
  O  O86  1  0.17525200  0.07023000  0.79785000  1
  O  O87  1  0.92167100  0.58254000  0.81825000  1
  O  O88  1  0.57065400  0.42061600  0.28966700  1
  O  O89  1  0.82474800  0.92977000  0.20215000  1
  O  O90  1  0.68950500  0.58954500  0.06924500  1
  O  O91  1  0.04213600  0.93517100  0.59404200  1
  O  O92  1  0.18036700  0.40704700  0.82854800  1
  O  O93  1  0.23374500  0.73914600  0.91314200  1
  O  O94  1  0.70990000  0.94065100  0.37702700  1
  O  O95  1  0.28157500  0.39905600  0.63576100  1
  O  O96  1  0.55080100  0.57919900  0.60663500  1
  O  O97  1  0.95786400  0.06482900  0.40595800  1
  O  O98  1  0.48981100  0.11086300  0.10877000  1
  O  O99  1  0.47704000  0.24666500  0.60659200  1
  O  O100  1  0.29325300  0.07453000  0.92077500  1
  O  O101  1  0.42167100  0.91746000  0.68175000  1
  O  O102  1  0.52296000  0.75333500  0.39340800  1
  O  O103  1  0.88424600  0.31397100  0.45941300  1
  O  O104  1  0.92081800  0.74690300  0.23349100  1
  O  O105  1  0.31049500  0.41045500  0.93075500  1
  O  O106  1  0.12801300  0.21166500  0.00741200  1
  O  O107  1  0.55375500  0.91901400  0.60947600  1
  O  O108  1  0.21698400  0.73825600  0.64991800  1
  O  O109  1  0.21842500  0.89905600  0.13576100  1
  O  O110  1  0.97083500  0.24968800  0.62564200  1
  O  O111  1  0.71698400  0.76174400  0.85008200  1
  O  O112  1  0.81963300  0.59295300  0.17145200  1
  O  O113  1  0.11575400  0.68602900  0.54058700  1
  O  O114  1  0.37198700  0.71166500  0.50741200  1
  O  O115  1  0.05375500  0.58098600  0.89052400  1
  O  O116  1  0.78301600  0.26174400  0.35008200  1
  O  O117  1  0.32809300  0.73479800  0.75069700  1
  O  O118  1  0.54213600  0.56482900  0.90595800  1
  O  O119  1  0.38424600  0.18602900  0.04058700  1
  O  O120  1  0.05080100  0.92080100  0.89336500  1
  O  O121  1  0.07065400  0.07938400  0.21033300  1
  O  O122  1  0.45786400  0.43517100  0.09404200  1
  O  O123  1  0.62801300  0.28833500  0.49258800  1
