# generated using pymatgen
data_LuSF
_symmetry_space_group_name_H-M   'P 1'
_cell_length_a   8.55924201
_cell_length_b   8.55924201
_cell_length_c   8.55924195
_cell_angle_alpha   26.81409896
_cell_angle_beta   26.81409896
_cell_angle_gamma   26.81410162
_symmetry_Int_Tables_number   1
_chemical_formula_structural   LuSF
_chemical_formula_sum   'Lu2 S2 F2'
_cell_volume   112.51870008
_cell_formula_units_Z   2
loop_
 _symmetry_equiv_pos_site_id
 _symmetry_equiv_pos_as_xyz
  1  'x, y, z'
loop_
 _atom_site_type_symbol
 _atom_site_label
 _atom_site_symmetry_multiplicity
 _atom_site_fract_x
 _atom_site_fract_y
 _atom_site_fract_z
 _atom_site_occupancy
  Lu  Lu0  1  0.00000000  0.00000000  0.00000000  1
  Lu  Lu1  1  0.50000000  0.50000000  0.50000000  1
  S  S2  1  0.39078900  0.39078900  0.39078900  1
  S  S3  1  0.60921100  0.60921100  0.60921100  1
  F  F4  1  0.16736500  0.16736500  0.16736500  1
  F  F5  1  0.83263500  0.83263500  0.83263500  1
