# generated using pymatgen
data_LiMo4P7O24
_symmetry_space_group_name_H-M   'P 1'
_cell_length_a   10.57889900
_cell_length_b   10.60302820
_cell_length_c   11.08308230
_cell_angle_alpha   108.36618081
_cell_angle_beta   111.60152507
_cell_angle_gamma   104.88540463
_symmetry_Int_Tables_number   1
_chemical_formula_structural   LiMo4P7O24
_chemical_formula_sum   'Li2 Mo8 P14 O48'
_cell_volume   994.22362236
_cell_formula_units_Z   2
loop_
 _symmetry_equiv_pos_site_id
 _symmetry_equiv_pos_as_xyz
  1  'x, y, z'
loop_
 _atom_site_type_symbol
 _atom_site_label
 _atom_site_symmetry_multiplicity
 _atom_site_fract_x
 _atom_site_fract_y
 _atom_site_fract_z
 _atom_site_occupancy
  Li  Li0  1  0.62232600  0.25155200  0.64774300  1
  Li  Li1  1  0.37767400  0.74844800  0.35225700  1
  Mo  Mo2  1  0.50128800  0.90149100  0.74589900  1
  Mo  Mo3  1  0.00286600  0.38195200  0.07557300  1
  Mo  Mo4  1  0.50967600  0.66147700  0.88627900  1
  Mo  Mo5  1  0.01665300  0.17521000  0.58764400  1
  Mo  Mo6  1  0.99713400  0.61804800  0.92442700  1
  Mo  Mo7  1  0.49871200  0.09850900  0.25410100  1
  Mo  Mo8  1  0.98334700  0.82479000  0.41235600  1
  Mo  Mo9  1  0.49032400  0.33852300  0.11372100  1
  P  P10  1  0.25114500  0.46442000  0.95227300  1
  P  P11  1  0.26266800  0.03901200  0.75629700  1
  P  P12  1  0.79812000  0.05594100  0.73459800  1
  P  P13  1  0.26428600  0.82462100  0.87624600  1
  P  P14  1  0.73733200  0.96098800  0.24370300  1
  P  P15  1  0.19540700  0.62574200  0.43306300  1
  P  P16  1  0.80459300  0.37425800  0.56693700  1
  P  P17  1  0.73571400  0.17537900  0.12375400  1
  P  P18  1  0.25522300  0.39408900  0.51721600  1
  P  P19  1  0.23268700  0.22079700  0.23208200  1
  P  P20  1  0.20188000  0.94405900  0.26540200  1
  P  P21  1  0.74477700  0.60591100  0.48278400  1
  P  P22  1  0.74885500  0.53558000  0.04772700  1
  P  P23  1  0.76731300  0.77920300  0.76791800  1
  O  O24  1  0.90816900  0.31184900  0.53565100  1
  O  O25  1  0.37494300  0.01087100  0.34585600  1
  O  O26  1  0.87861600  0.97372300  0.36934100  1
  O  O27  1  0.85210000  0.74202400  0.50013100  1
  O  O28  1  0.14440500  0.93178000  0.36833800  1
  O  O29  1  0.63568800  0.77800600  0.79725700  1
  O  O30  1  0.13049100  0.69231300  0.83534700  1
  O  O31  1  0.87185200  0.49968400  0.00956800  1
  O  O32  1  0.63013100  0.22076700  0.18171600  1
  O  O33  1  0.12814800  0.50031600  0.99043200  1
  O  O34  1  0.14790000  0.25797600  0.49986900  1
  O  O35  1  0.36045400  0.60005200  0.96262700  1
  O  O36  1  0.80750600  0.10098600  0.22131700  1
  O  O37  1  0.63576100  0.26898800  0.47483000  1
  O  O38  1  0.36431200  0.22199400  0.20274300  1
  O  O39  1  0.68741100  0.66021600  0.59921900  1
  O  O40  1  0.84742700  0.93554500  0.78267700  1
  O  O41  1  0.85559500  0.06822000  0.63166200  1
  O  O42  1  0.39357700  0.49297400  0.66203500  1
  O  O43  1  0.83401100  0.51589200  0.53607100  1
  O  O44  1  0.60642300  0.50702600  0.33796500  1
  O  O45  1  0.11908400  0.25312200  0.13561200  1
  O  O46  1  0.13847900  0.80460300  0.12856500  1
  O  O47  1  0.15257300  0.06445500  0.21732300  1
  O  O48  1  0.35461500  0.93638200  0.03456400  1
  O  O49  1  0.64538500  0.06361800  0.96543600  1
  O  O50  1  0.16954500  0.57403500  0.27618400  1
  O  O51  1  0.66243400  0.56804600  0.92388600  1
  O  O52  1  0.36986900  0.77923300  0.81828400  1
  O  O53  1  0.36423900  0.73101200  0.52517000  1
  O  O54  1  0.83031500  0.66314500  0.20008300  1
  O  O55  1  0.83045500  0.42596500  0.72381600  1
  O  O56  1  0.12138400  0.02627700  0.63065900  1
  O  O57  1  0.33756600  0.43195400  0.07611400  1
  O  O58  1  0.16968500  0.33685500  0.79991700  1
  O  O59  1  0.62505700  0.98912900  0.65414400  1
  O  O60  1  0.66772100  0.82581300  0.10240400  1
  O  O61  1  0.31258900  0.33978400  0.40078100  1
  O  O62  1  0.33227900  0.17418700  0.89759600  1
  O  O63  1  0.86152100  0.19539700  0.87143500  1
  O  O64  1  0.63954600  0.39994800  0.03737300  1
  O  O65  1  0.37062200  0.01554900  0.69950400  1
  O  O66  1  0.16598900  0.48410800  0.46392900  1
  O  O67  1  0.88091600  0.74687800  0.86438800  1
  O  O68  1  0.62937800  0.98445100  0.30049600  1
  O  O69  1  0.86950900  0.30768700  0.16465300  1
  O  O70  1  0.09183100  0.68815100  0.46434900  1
  O  O71  1  0.19249400  0.89901400  0.77868300  1
