# generated using pymatgen
data_Ti2Fe(PO5)2
_symmetry_space_group_name_H-M   'P 1'
_cell_length_a   7.45698860
_cell_length_b   7.50955300
_cell_length_c   13.04491130
_cell_angle_alpha   90.00015050
_cell_angle_beta   89.78874989
_cell_angle_gamma   89.99943470
_symmetry_Int_Tables_number   1
_chemical_formula_structural   Ti2Fe(PO5)2
_chemical_formula_sum   'Ti8 Fe4 P8 O40'
_cell_volume   730.49247137
_cell_formula_units_Z   4
loop_
 _symmetry_equiv_pos_site_id
 _symmetry_equiv_pos_as_xyz
  1  'x, y, z'
loop_
 _atom_site_type_symbol
 _atom_site_label
 _atom_site_symmetry_multiplicity
 _atom_site_fract_x
 _atom_site_fract_y
 _atom_site_fract_z
 _atom_site_occupancy
  Ti  Ti0  1  0.61814000  0.27649400  0.35406800  1
  Ti  Ti1  1  0.11822300  0.27645900  0.85408100  1
  Ti  Ti2  1  0.88177400  0.72351300  0.14591400  1
  Ti  Ti3  1  0.38185200  0.72352800  0.64592800  1
  Ti  Ti4  1  0.36821500  0.22351400  0.10408400  1
  Ti  Ti5  1  0.86814700  0.22353400  0.60406900  1
  Ti  Ti6  1  0.13178600  0.77645400  0.39592100  1
  Ti  Ti7  1  0.63186500  0.77649300  0.89593600  1
  Fe  Fe8  1  0.50003700  0.00002200  0.50002700  1
  Fe  Fe9  1  0.74992500  0.50002500  0.74996400  1
  Fe  Fe10  1  0.00005200  0.99998300  0.00000300  1
  Fe  Fe11  1  0.24994600  0.49999800  0.24999400  1
  P  P12  1  0.24897500  0.61809400  0.00107600  1
  P  P13  1  0.74891400  0.61806600  0.50107600  1
  P  P14  1  0.49894000  0.88191000  0.25104700  1
  P  P15  1  0.99894700  0.88193600  0.75106500  1
  P  P16  1  0.25105800  0.38193100  0.49891700  1
  P  P17  1  0.75106500  0.38190900  0.99893300  1
  P  P18  1  0.00102400  0.11809000  0.24894400  1
  P  P19  1  0.50108300  0.11806300  0.74894300  1
  O  O20  1  0.90636400  0.73199100  0.46214500  1
  O  O21  1  0.40637100  0.73203800  0.96217300  1
  O  O22  1  0.59364900  0.26794500  0.03786100  1
  O  O23  1  0.09362400  0.26803000  0.53782800  1
  O  O24  1  0.84362300  0.23203600  0.28783800  1
  O  O25  1  0.34363200  0.23199500  0.78786600  1
  O  O26  1  0.65635800  0.76794300  0.21212900  1
  O  O27  1  0.15638600  0.76803200  0.71216000  1
  O  O28  1  0.48436700  0.34171100  0.25150400  1
  O  O29  1  0.98425200  0.34174900  0.75156800  1
  O  O30  1  0.26574300  0.84174800  0.49843400  1
  O  O31  1  0.76561900  0.84170000  0.99850200  1
  O  O32  1  0.23440300  0.15831700  0.00152800  1
  O  O33  1  0.73424900  0.15823200  0.50155200  1
  O  O34  1  0.01561400  0.65831100  0.24846700  1
  O  O35  1  0.51575500  0.65823400  0.74844800  1
  O  O36  1  0.30959400  0.49400400  0.09008500  1
  O  O37  1  0.80953400  0.49395400  0.59004400  1
  O  O38  1  0.55952500  0.00600800  0.34002100  1
  O  O39  1  0.05960700  0.00601900  0.84007000  1
  O  O40  1  0.19039800  0.50602500  0.40991500  1
  O  O41  1  0.69047800  0.50601600  0.90996300  1
  O  O42  1  0.94040200  0.99400700  0.15993200  1
  O  O43  1  0.44047100  0.99396100  0.65997300  1
  O  O44  1  0.35342800  0.75400300  0.29318100  1
  O  O45  1  0.85343800  0.75409400  0.79326500  1
  O  O46  1  0.10344100  0.74602300  0.04321300  1
  O  O47  1  0.60341500  0.74590700  0.54324400  1
  O  O48  1  0.14654600  0.24600800  0.20678300  1
  O  O49  1  0.64657000  0.24590400  0.70675800  1
  O  O50  1  0.39658100  0.25409100  0.45673400  1
  O  O51  1  0.89658800  0.25398600  0.95682500  1
  O  O52  1  0.67417900  0.50466200  0.41226300  1
  O  O53  1  0.17414700  0.50464000  0.91230600  1
  O  O54  1  0.42414300  0.99529800  0.16223000  1
  O  O55  1  0.92413500  0.99536100  0.66229100  1
  O  O56  1  0.82584500  0.49531100  0.08775100  1
  O  O57  1  0.32585100  0.49537000  0.58769100  1
  O  O58  1  0.07587000  0.00465100  0.33771400  1
  O  O59  1  0.57583900  0.00467300  0.83775600  1
