# generated using pymatgen
data_Gd3BWO9
_symmetry_space_group_name_H-M   'P 1'
_cell_length_a   8.66959704
_cell_length_b   8.66959704
_cell_length_c   5.47653200
_cell_angle_alpha   90.00000000
_cell_angle_beta   90.00000000
_cell_angle_gamma   119.99999267
_symmetry_Int_Tables_number   1
_chemical_formula_structural   Gd3BWO9
_chemical_formula_sum   'Gd6 B2 W2 O18'
_cell_volume   356.47913682
_cell_formula_units_Z   2
loop_
 _symmetry_equiv_pos_site_id
 _symmetry_equiv_pos_as_xyz
  1  'x, y, z'
loop_
 _atom_site_type_symbol
 _atom_site_label
 _atom_site_symmetry_multiplicity
 _atom_site_fract_x
 _atom_site_fract_y
 _atom_site_fract_z
 _atom_site_occupancy
  Gd  Gd0  1  0.35587800  0.07877600  0.19885000  1
  Gd  Gd1  1  0.27710300  0.35587800  0.69885000  1
  Gd  Gd2  1  0.72289700  0.64412200  0.19885000  1
  Gd  Gd3  1  0.64412200  0.92122400  0.69885000  1
  Gd  Gd4  1  0.92122400  0.27710300  0.19885000  1
  Gd  Gd5  1  0.07877600  0.72289700  0.69885000  1
  B  B6  1  0.00000000  0.00000000  0.36879900  1
  B  B7  1  0.00000000  0.00000000  0.86879900  1
  W  W8  1  0.66666700  0.33333300  0.74163700  1
  W  W9  1  0.33333300  0.66666700  0.24163700  1
  O  O10  1  0.12499900  0.17925400  0.36016300  1
  O  O11  1  0.87500100  0.82074600  0.86016300  1
  O  O12  1  0.51902300  0.38696600  0.96897100  1
  O  O13  1  0.17925400  0.05425500  0.86016300  1
  O  O14  1  0.82074600  0.94574500  0.36016300  1
  O  O15  1  0.25964000  0.79622700  0.03450400  1
  O  O16  1  0.86794300  0.48097700  0.96897100  1
  O  O17  1  0.46341300  0.25964000  0.53450400  1
  O  O18  1  0.20377300  0.46341300  0.03450400  1
  O  O19  1  0.94574500  0.12499900  0.86016300  1
  O  O20  1  0.74036000  0.20377300  0.53450400  1
  O  O21  1  0.79622700  0.53658700  0.53450400  1
  O  O22  1  0.05425500  0.87500100  0.36016300  1
  O  O23  1  0.53658700  0.74036000  0.03450400  1
  O  O24  1  0.61303400  0.13205700  0.96897100  1
  O  O25  1  0.13205700  0.51902300  0.46897100  1
  O  O26  1  0.48097700  0.61303400  0.46897100  1
  O  O27  1  0.38696600  0.86794300  0.46897100  1
