# generated using pymatgen
data_Ba(SbAu)2
_symmetry_space_group_name_H-M   'P 1'
_cell_length_a   4.87505700
_cell_length_b   4.99508200
_cell_length_c   11.30465305
_cell_angle_alpha   88.75749129
_cell_angle_beta   90.00000000
_cell_angle_gamma   90.00000000
_symmetry_Int_Tables_number   1
_chemical_formula_structural   Ba(SbAu)2
_chemical_formula_sum   'Ba2 Sb4 Au4'
_cell_volume   275.21837787
_cell_formula_units_Z   2
loop_
 _symmetry_equiv_pos_site_id
 _symmetry_equiv_pos_as_xyz
  1  'x, y, z'
loop_
 _atom_site_type_symbol
 _atom_site_label
 _atom_site_symmetry_multiplicity
 _atom_site_fract_x
 _atom_site_fract_y
 _atom_site_fract_z
 _atom_site_occupancy
  Ba  Ba0  1  0.25000000  0.73772100  0.75592500  1
  Ba  Ba1  1  0.75000000  0.26227900  0.24407500  1
  Sb  Sb2  1  0.75000000  0.75269000  0.50108500  1
  Sb  Sb3  1  0.25000000  0.24731000  0.49891500  1
  Sb  Sb4  1  0.25000000  0.80488000  0.12365100  1
  Sb  Sb5  1  0.75000000  0.19512000  0.87634900  1
  Au  Au6  1  0.75000000  0.68972700  0.00071500  1
  Au  Au7  1  0.75000000  0.25181000  0.63378100  1
  Au  Au8  1  0.25000000  0.74819000  0.36621900  1
  Au  Au9  1  0.25000000  0.31027300  0.99928500  1
