# generated using pymatgen
data_Sm3RuO7
_symmetry_space_group_name_H-M   'P 1'
_cell_length_a   6.55245035
_cell_length_b   6.55245035
_cell_length_c   7.53990300
_cell_angle_alpha   90.00000000
_cell_angle_beta   90.00000000
_cell_angle_gamma   111.00024919
_symmetry_Int_Tables_number   1
_chemical_formula_structural   Sm3RuO7
_chemical_formula_sum   'Sm6 Ru2 O14'
_cell_volume   302.22072876
_cell_formula_units_Z   2
loop_
 _symmetry_equiv_pos_site_id
 _symmetry_equiv_pos_as_xyz
  1  'x, y, z'
loop_
 _atom_site_type_symbol
 _atom_site_label
 _atom_site_symmetry_multiplicity
 _atom_site_fract_x
 _atom_site_fract_y
 _atom_site_fract_z
 _atom_site_occupancy
  Sm  Sm0  1  0.47564900  0.91993800  0.75000000  1
  Sm  Sm1  1  0.52435100  0.08006200  0.25000000  1
  Sm  Sm2  1  0.91993800  0.47564900  0.75000000  1
  Sm  Sm3  1  0.08006200  0.52435100  0.25000000  1
  Sm  Sm4  1  0.00000000  0.00000000  0.50000000  1
  Sm  Sm5  1  0.00000000  0.00000000  0.00000000  1
  Ru  Ru6  1  0.50000000  0.50000000  0.50000000  1
  Ru  Ru7  1  0.50000000  0.50000000  0.00000000  1
  O  O8  1  0.58520500  0.58520500  0.75000000  1
  O  O9  1  0.41479500  0.41479500  0.25000000  1
  O  O10  1  0.84286600  0.10715500  0.75000000  1
  O  O11  1  0.15713400  0.89284500  0.25000000  1
  O  O12  1  0.10715500  0.84286600  0.75000000  1
  O  O13  1  0.89284500  0.15713400  0.25000000  1
  O  O14  1  0.43887000  0.18529600  0.96113200  1
  O  O15  1  0.56113000  0.81470400  0.46113200  1
  O  O16  1  0.18529600  0.43887000  0.96113200  1
  O  O17  1  0.81470400  0.56113000  0.46113200  1
  O  O18  1  0.43887000  0.18529600  0.53886800  1
  O  O19  1  0.56113000  0.81470400  0.03886800  1
  O  O20  1  0.81470400  0.56113000  0.03886800  1
  O  O21  1  0.18529600  0.43887000  0.53886800  1
