# generated using pymatgen
data_Pu3Zn22
_symmetry_space_group_name_H-M   'P 1'
_cell_length_a   8.87120114
_cell_length_b   8.86454170
_cell_length_c   12.31813715
_cell_angle_alpha   111.07652464
_cell_angle_beta   111.11147817
_cell_angle_gamma   89.97496392
_symmetry_Int_Tables_number   1
_chemical_formula_structural   Pu3Zn22
_chemical_formula_sum   'Pu6 Zn44'
_cell_volume   833.89213635
_cell_formula_units_Z   2
loop_
 _symmetry_equiv_pos_site_id
 _symmetry_equiv_pos_as_xyz
  1  'x, y, z'
loop_
 _atom_site_type_symbol
 _atom_site_label
 _atom_site_symmetry_multiplicity
 _atom_site_fract_x
 _atom_site_fract_y
 _atom_site_fract_z
 _atom_site_occupancy
  Pu  Pu0  1  0.12546000  0.87551900  0.25095800  1
  Pu  Pu1  1  0.25312200  0.50315300  0.50632700  1
  Pu  Pu2  1  0.50241300  0.25240800  0.00485900  1
  Pu  Pu3  1  0.74687800  0.49684700  0.49367300  1
  Pu  Pu4  1  0.49758700  0.74759200  0.99514100  1
  Pu  Pu5  1  0.87454000  0.12448100  0.74904200  1
  Zn  Zn6  1  0.16499700  0.26094000  0.02180300  1
  Zn  Zn7  1  0.85677800  0.26088900  0.02180700  1
  Zn  Zn8  1  0.26105600  0.85659700  0.52220200  1
  Zn  Zn9  1  0.11842000  0.21934100  0.23670000  1
  Zn  Zn10  1  0.84425800  0.37554500  0.25108700  1
  Zn  Zn11  1  0.00000000  0.00000000  0.50000000  1
  Zn  Zn12  1  0.21917200  0.11848300  0.73675100  1
  Zn  Zn13  1  0.83500300  0.73906000  0.97819700  1
  Zn  Zn14  1  0.32021500  0.04174400  0.12186100  1
  Zn  Zn15  1  0.04177900  0.80114000  0.62181400  1
  Zn  Zn16  1  0.19837100  0.41992400  0.87815900  1
  Zn  Zn17  1  0.04185900  0.32071100  0.62179700  1
  Zn  Zn18  1  0.67978500  0.95825600  0.87813900  1
  Zn  Zn19  1  0.42012600  0.19897400  0.37826000  1
  Zn  Zn20  1  0.88158000  0.78065900  0.76330000  1
  Zn  Zn21  1  0.59314600  0.62446700  0.74891300  1
  Zn  Zn22  1  0.62403000  0.15582000  0.24808600  1
  Zn  Zn23  1  0.88168200  0.48261000  0.76330800  1
  Zn  Zn24  1  0.95822100  0.19886000  0.37818600  1
  Zn  Zn25  1  0.48239000  0.88173400  0.26324700  1
  Zn  Zn26  1  0.51761000  0.11826600  0.73675300  1
  Zn  Zn27  1  0.11831800  0.51739000  0.23669200  1
  Zn  Zn28  1  0.37593800  0.40769700  0.75191100  1
  Zn  Zn29  1  0.80162900  0.58007600  0.12184100  1
  Zn  Zn30  1  0.32021200  0.58011900  0.12196000  1
  Zn  Zn31  1  0.67978800  0.41988100  0.87804000  1
  Zn  Zn32  1  0.15574200  0.62445500  0.74891300  1
  Zn  Zn33  1  0.78082800  0.88151700  0.26324900  1
  Zn  Zn34  1  0.40685400  0.37553300  0.25108700  1
  Zn  Zn35  1  0.80172200  0.04178400  0.12193600  1
  Zn  Zn36  1  0.62406200  0.59230300  0.24808900  1
  Zn  Zn37  1  0.95814100  0.67928900  0.37820300  1
  Zn  Zn38  1  0.58003100  0.32068100  0.62185600  1
  Zn  Zn39  1  0.73882400  0.83441600  0.47779400  1
  Zn  Zn40  1  0.37597000  0.84418000  0.75191400  1
  Zn  Zn41  1  0.41996900  0.67931900  0.37814400  1
  Zn  Zn42  1  0.00000000  0.00000000  0.00000000  1
  Zn  Zn43  1  0.26117600  0.16558400  0.52220600  1
  Zn  Zn44  1  0.73894400  0.14340300  0.47779800  1
  Zn  Zn45  1  0.57987400  0.80102600  0.62174000  1
  Zn  Zn46  1  0.19827800  0.95821600  0.87806400  1
  Zn  Zn47  1  0.00000000  0.50000000  0.00000000  1
  Zn  Zn48  1  0.50000000  0.00000000  0.50000000  1
  Zn  Zn49  1  0.14322200  0.73911100  0.97819300  1
