# generated using pymatgen
data_KVSO6
_symmetry_space_group_name_H-M   'P 1'
_cell_length_a   5.55845000
_cell_length_b   8.64061800
_cell_length_c   11.26552100
_cell_angle_alpha   90.00000000
_cell_angle_beta   90.00000000
_cell_angle_gamma   90.00000000
_symmetry_Int_Tables_number   1
_chemical_formula_structural   KVSO6
_chemical_formula_sum   'K4 V4 S4 O24'
_cell_volume   541.06543459
_cell_formula_units_Z   4
loop_
 _symmetry_equiv_pos_site_id
 _symmetry_equiv_pos_as_xyz
  1  'x, y, z'
loop_
 _atom_site_type_symbol
 _atom_site_label
 _atom_site_symmetry_multiplicity
 _atom_site_fract_x
 _atom_site_fract_y
 _atom_site_fract_z
 _atom_site_occupancy
  K  K0  1  0.02710000  0.18952400  0.64025400  1
  K  K1  1  0.52710000  0.31047600  0.35974600  1
  K  K2  1  0.47290000  0.81047600  0.14025400  1
  K  K3  1  0.97290000  0.68952400  0.85974600  1
  V  V4  1  0.03220100  0.65431300  0.43742200  1
  V  V5  1  0.53220100  0.84568700  0.56257800  1
  V  V6  1  0.96779900  0.15431300  0.06257800  1
  V  V7  1  0.46779900  0.34568700  0.93742200  1
  S  S8  1  0.53329800  0.44597900  0.71086100  1
  S  S9  1  0.46670200  0.94597900  0.78913900  1
  S  S10  1  0.96670200  0.55402100  0.21086100  1
  S  S11  1  0.03329800  0.05402100  0.28913900  1
  O  O12  1  0.70857300  0.37030500  0.80000600  1
  O  O13  1  0.67432700  0.21655000  0.00887000  1
  O  O14  1  0.79142700  0.62969500  0.30000600  1
  O  O15  1  0.48896200  0.85350000  0.89638300  1
  O  O16  1  0.17432700  0.28345000  0.99113000  1
  O  O17  1  0.19769400  0.56419400  0.28582900  1
  O  O18  1  0.50718900  0.50929100  0.00604700  1
  O  O19  1  0.30230600  0.43580600  0.78582900  1
  O  O20  1  0.69769400  0.93580600  0.71417100  1
  O  O21  1  0.01103800  0.14650000  0.39638300  1
  O  O22  1  0.98896200  0.64650000  0.10361700  1
  O  O23  1  0.80230600  0.06419400  0.21417100  1
  O  O24  1  0.00718900  0.99070900  0.99395300  1
  O  O25  1  0.99281100  0.49070900  0.50604700  1
  O  O26  1  0.32567300  0.71655000  0.49113000  1
  O  O27  1  0.82567300  0.78345000  0.50887000  1
  O  O28  1  0.89198900  0.39411500  0.19211700  1
  O  O29  1  0.51103800  0.35350000  0.60361700  1
  O  O30  1  0.10801100  0.89411500  0.30788300  1
  O  O31  1  0.49281100  0.00929100  0.49395300  1
  O  O32  1  0.60801100  0.60588500  0.69211700  1
  O  O33  1  0.29142700  0.87030500  0.69999400  1
  O  O34  1  0.39198900  0.10588500  0.80788300  1
  O  O35  1  0.20857300  0.12969500  0.19999400  1
