# generated using pymatgen
data_Sb2N5F11
_symmetry_space_group_name_H-M   'P 1'
_cell_length_a   8.54355177
_cell_length_b   8.54355177
_cell_length_c   17.11307881
_cell_angle_alpha   80.51291647
_cell_angle_beta   80.51291647
_cell_angle_gamma   98.16241137
_symmetry_Int_Tables_number   1
_chemical_formula_structural   Sb2N5F11
_chemical_formula_sum   'Sb8 N20 F44'
_cell_volume   1196.67811587
_cell_formula_units_Z   4
loop_
 _symmetry_equiv_pos_site_id
 _symmetry_equiv_pos_as_xyz
  1  'x, y, z'
loop_
 _atom_site_type_symbol
 _atom_site_label
 _atom_site_symmetry_multiplicity
 _atom_site_fract_x
 _atom_site_fract_y
 _atom_site_fract_z
 _atom_site_occupancy
  Sb  Sb0  1  0.70553800  0.76030200  0.90323700  1
  Sb  Sb1  1  0.23969800  0.29446200  0.59676300  1
  Sb  Sb2  1  0.29446200  0.23969800  0.09676300  1
  Sb  Sb3  1  0.76030200  0.70553800  0.40323700  1
  Sb  Sb4  1  0.88900200  0.35691700  0.87995400  1
  Sb  Sb5  1  0.64308300  0.11099800  0.62004600  1
  Sb  Sb6  1  0.11099800  0.64308300  0.12004600  1
  Sb  Sb7  1  0.35691700  0.88900200  0.37995400  1
  N  N8  1  0.16220400  0.78940600  0.65845800  1
  N  N9  1  0.21059400  0.83779600  0.84154200  1
  N  N10  1  0.83779600  0.21059400  0.34154200  1
  N  N11  1  0.78940600  0.16220400  0.15845800  1
  N  N12  1  0.04173100  0.74629900  0.64345600  1
  N  N13  1  0.25370100  0.95826900  0.85654400  1
  N  N14  1  0.95826900  0.25370100  0.35654400  1
  N  N15  1  0.74629900  0.04173100  0.14345600  1
  N  N16  1  0.92486300  0.70130400  0.60922400  1
  N  N17  1  0.29869600  0.07513700  0.89077600  1
  N  N18  1  0.07513700  0.29869600  0.39077600  1
  N  N19  1  0.70130400  0.92486300  0.10922400  1
  N  N20  1  0.78642700  0.66146600  0.65661400  1
  N  N21  1  0.33853400  0.21357300  0.84338600  1
  N  N22  1  0.21357300  0.33853400  0.34338600  1
  N  N23  1  0.66146600  0.78642700  0.15661400  1
  N  N24  1  0.65466900  0.62170400  0.68448900  1
  N  N25  1  0.37829600  0.34533100  0.81551100  1
  N  N26  1  0.34533100  0.37829600  0.31551100  1
  N  N27  1  0.62170400  0.65466900  0.18448900  1
  F  F28  1  0.53891600  0.64772400  0.86179500  1
  F  F29  1  0.35227600  0.46108400  0.63820500  1
  F  F30  1  0.46108400  0.35227600  0.13820500  1
  F  F31  1  0.64772400  0.53891600  0.36179500  1
  F  F32  1  0.83969700  0.80192200  0.79838600  1
  F  F33  1  0.19807800  0.16030300  0.70161400  1
  F  F34  1  0.16030300  0.19807800  0.20161400  1
  F  F35  1  0.80192200  0.83969700  0.29838600  1
  F  F36  1  0.88783200  0.84344500  0.94437300  1
  F  F37  1  0.15655500  0.11216800  0.55562700  1
  F  F38  1  0.11216800  0.15655500  0.05562700  1
  F  F39  1  0.84344500  0.88783200  0.44437300  1
  F  F40  1  0.59069100  0.68407800  0.01109600  1
  F  F41  1  0.31592200  0.40930900  0.48890400  1
  F  F42  1  0.40931000  0.31592200  0.98890400  1
  F  F43  1  0.68407800  0.59069100  0.51109600  1
  F  F44  1  0.62336700  0.95448400  0.89012200  1
  F  F45  1  0.04551600  0.37663300  0.60987800  1
  F  F46  1  0.37663300  0.04551600  0.10987800  1
  F  F47  1  0.95448400  0.62336700  0.39012200  1
  F  F48  1  0.79180300  0.54377300  0.91998300  1
  F  F49  1  0.45622700  0.20819700  0.58001700  1
  F  F50  1  0.20819700  0.45622700  0.08001700  1
  F  F51  1  0.54377300  0.79180300  0.41998300  1
  F  F52  1  0.69239700  0.30401400  0.84431800  1
  F  F53  1  0.69598600  0.30760300  0.65568200  1
  F  F54  1  0.30760300  0.69598600  0.15568200  1
  F  F55  1  0.30401400  0.69239700  0.34431800  1
  F  F56  1  0.96677800  0.50087400  0.77797900  1
  F  F57  1  0.49912600  0.03322200  0.72202100  1
  F  F58  1  0.03322200  0.49912600  0.22202100  1
  F  F59  1  0.50087400  0.96677800  0.27797900  1
  F  F60  1  0.07701000  0.44343200  0.91510200  1
  F  F61  1  0.55656800  0.92299000  0.58489800  1
  F  F62  1  0.92299000  0.55656800  0.08489800  1
  F  F63  1  0.44343200  0.07701000  0.41510200  1
  F  F64  1  0.79592600  0.23879300  0.98564000  1
  F  F65  1  0.76120700  0.20407400  0.51435900  1
  F  F66  1  0.20407400  0.76120700  0.01435900  1
  F  F67  1  0.23879300  0.79592600  0.48564100  1
  F  F68  1  0.98438800  0.18590500  0.84647100  1
  F  F69  1  0.81409500  0.01561200  0.65352900  1
  F  F70  1  0.01561200  0.81409500  0.15352900  1
  F  F71  1  0.18590500  0.98438800  0.34647100  1
