# generated using pymatgen
data_NaAl3NiCl12
_symmetry_space_group_name_H-M   'P 1'
_cell_length_a   12.21289500
_cell_length_b   12.69074900
_cell_length_c   13.82127671
_cell_angle_alpha   73.16265377
_cell_angle_beta   90.00000000
_cell_angle_gamma   90.00000000
_symmetry_Int_Tables_number   1
_chemical_formula_structural   NaAl3NiCl12
_chemical_formula_sum   'Na4 Al12 Ni4 Cl48'
_cell_volume   2050.33760199
_cell_formula_units_Z   4
loop_
 _symmetry_equiv_pos_site_id
 _symmetry_equiv_pos_as_xyz
  1  'x, y, z'
loop_
 _atom_site_type_symbol
 _atom_site_label
 _atom_site_symmetry_multiplicity
 _atom_site_fract_x
 _atom_site_fract_y
 _atom_site_fract_z
 _atom_site_occupancy
  Na  Na0  1  0.20770400  0.51697100  0.70928700  1
  Na  Na1  1  0.79229600  0.48302900  0.29071300  1
  Na  Na2  1  0.29229600  0.01697100  0.70928700  1
  Na  Na3  1  0.70770400  0.98302900  0.29071300  1
  Al  Al4  1  0.98690100  0.17621100  0.27797100  1
  Al  Al5  1  0.75310700  0.61305900  0.01918600  1
  Al  Al6  1  0.08030700  0.67512100  0.38911800  1
  Al  Al7  1  0.48690100  0.32378900  0.72202900  1
  Al  Al8  1  0.74689300  0.11305900  0.01918600  1
  Al  Al9  1  0.41969300  0.17512100  0.38911800  1
  Al  Al10  1  0.58030700  0.82487900  0.61088200  1
  Al  Al11  1  0.91969300  0.32487900  0.61088200  1
  Al  Al12  1  0.51309900  0.67621100  0.27797100  1
  Al  Al13  1  0.25310700  0.88694100  0.98081400  1
  Al  Al14  1  0.01309900  0.82378900  0.72202900  1
  Al  Al15  1  0.24689300  0.38694100  0.98081400  1
  Ni  Ni16  1  0.73776600  0.25872200  0.78569900  1
  Ni  Ni17  1  0.23776600  0.24127800  0.21430100  1
  Ni  Ni18  1  0.26223400  0.74127800  0.21430100  1
  Ni  Ni19  1  0.76223400  0.75872200  0.78569900  1
  Cl  Cl20  1  0.11447700  0.24639500  0.35233500  1
  Cl  Cl21  1  0.61471300  0.66742400  0.72406200  1
  Cl  Cl22  1  0.33790400  0.23934900  0.06364700  1
  Cl  Cl23  1  0.83107100  0.58079600  0.88765600  1
  Cl  Cl24  1  0.88552300  0.75360500  0.64766500  1
  Cl  Cl25  1  0.91089500  0.63313700  0.40069400  1
  Cl  Cl26  1  0.61447700  0.25360500  0.64766500  1
  Cl  Cl27  1  0.09241300  0.13970200  0.16320300  1
  Cl  Cl28  1  0.14753800  0.01423000  0.89729500  1
  Cl  Cl29  1  0.41089500  0.86686300  0.59930600  1
  Cl  Cl30  1  0.38528700  0.33257600  0.27593800  1
  Cl  Cl31  1  0.88528700  0.16742400  0.72406200  1
  Cl  Cl32  1  0.38552300  0.74639500  0.35233500  1
  Cl  Cl33  1  0.90758700  0.86029800  0.83679700  1
  Cl  Cl34  1  0.85222600  0.31683100  0.46999900  1
  Cl  Cl35  1  0.35246200  0.51423000  0.89729500  1
  Cl  Cl36  1  0.13370700  0.70395800  0.79121000  1
  Cl  Cl37  1  0.32310300  0.07166900  0.31862000  1
  Cl  Cl38  1  0.35222600  0.18316900  0.53000100  1
  Cl  Cl39  1  0.67689700  0.92833100  0.68138000  1
  Cl  Cl40  1  0.17689700  0.57166900  0.31862000  1
  Cl  Cl41  1  0.66892900  0.08079600  0.88765600  1
  Cl  Cl42  1  0.12555300  0.35738600  0.88000300  1
  Cl  Cl43  1  0.08689000  0.97002800  0.62647700  1
  Cl  Cl44  1  0.16892900  0.41920400  0.11234400  1
  Cl  Cl45  1  0.14777400  0.68316900  0.53000100  1
  Cl  Cl46  1  0.16209600  0.73934900  0.06364700  1
  Cl  Cl47  1  0.91311000  0.02997200  0.37352300  1
  Cl  Cl48  1  0.36629300  0.20395800  0.79121000  1
  Cl  Cl49  1  0.62555300  0.14261400  0.11999700  1
  Cl  Cl50  1  0.58689000  0.52997200  0.37352300  1
  Cl  Cl51  1  0.86629300  0.29604200  0.20879000  1
  Cl  Cl52  1  0.85246200  0.98577000  0.10270500  1
  Cl  Cl53  1  0.87444700  0.64261400  0.11999700  1
  Cl  Cl54  1  0.40758700  0.63970200  0.16320300  1
  Cl  Cl55  1  0.37444700  0.85738600  0.88000300  1
  Cl  Cl56  1  0.33107100  0.91920400  0.11234400  1
  Cl  Cl57  1  0.64753800  0.48577000  0.10270500  1
  Cl  Cl58  1  0.82310300  0.42833100  0.68138000  1
  Cl  Cl59  1  0.83790400  0.26065100  0.93635300  1
  Cl  Cl60  1  0.64777400  0.81683100  0.46999900  1
  Cl  Cl61  1  0.58910500  0.13313700  0.40069400  1
  Cl  Cl62  1  0.59241300  0.36029800  0.83679700  1
  Cl  Cl63  1  0.41311000  0.47002800  0.62647700  1
  Cl  Cl64  1  0.66209600  0.76065100  0.93635300  1
  Cl  Cl65  1  0.63370700  0.79604200  0.20879000  1
  Cl  Cl66  1  0.11471300  0.83257600  0.27593800  1
  Cl  Cl67  1  0.08910500  0.36686300  0.59930600  1
