# generated using pymatgen
data_Sm3(CoGe2)2
_symmetry_space_group_name_H-M   'P 1'
_cell_length_a   5.85940680
_cell_length_b   5.85940680
_cell_length_c   8.15062386
_cell_angle_alpha   73.49893543
_cell_angle_beta   73.49893543
_cell_angle_gamma   41.88598795
_symmetry_Int_Tables_number   1
_chemical_formula_structural   Sm3(CoGe2)2
_chemical_formula_sum   'Sm3 Co2 Ge4'
_cell_volume   177.98057682
_cell_formula_units_Z   1
loop_
 _symmetry_equiv_pos_site_id
 _symmetry_equiv_pos_as_xyz
  1  'x, y, z'
loop_
 _atom_site_type_symbol
 _atom_site_label
 _atom_site_symmetry_multiplicity
 _atom_site_fract_x
 _atom_site_fract_y
 _atom_site_fract_z
 _atom_site_occupancy
  Sm  Sm0  1  0.61903100  0.61903100  0.30773100  1
  Sm  Sm1  1  0.00000000  0.00000000  0.00000000  1
  Sm  Sm2  1  0.38096900  0.38096900  0.69226900  1
  Co  Co3  1  0.30496200  0.30496200  0.37259800  1
  Co  Co4  1  0.69503800  0.69503800  0.62740200  1
  Ge  Ge5  1  0.71129300  0.71129300  0.91737500  1
  Ge  Ge6  1  0.10460200  0.10460200  0.60141000  1
  Ge  Ge7  1  0.28870700  0.28870700  0.08262500  1
  Ge  Ge8  1  0.89539800  0.89539800  0.39859000  1
