# generated using pymatgen
data_K2MnH8(SO6)2
_symmetry_space_group_name_H-M   'P 1'
_cell_length_a   9.69709200
_cell_length_b   10.10172400
_cell_length_c   12.09148420
_cell_angle_alpha   84.48378764
_cell_angle_beta   90.00000000
_cell_angle_gamma   90.00000000
_symmetry_Int_Tables_number   1
_chemical_formula_structural   K2MnH8(SO6)2
_chemical_formula_sum   'K8 Mn4 H32 S8 O48'
_cell_volume   1178.96457213
_cell_formula_units_Z   4
loop_
 _symmetry_equiv_pos_site_id
 _symmetry_equiv_pos_as_xyz
  1  'x, y, z'
loop_
 _atom_site_type_symbol
 _atom_site_label
 _atom_site_symmetry_multiplicity
 _atom_site_fract_x
 _atom_site_fract_y
 _atom_site_fract_z
 _atom_site_occupancy
  K  K0  1  0.26810200  0.76000300  0.17016100  1
  K  K1  1  0.76810200  0.23999700  0.32983900  1
  K  K2  1  0.73189800  0.23999700  0.82983900  1
  K  K3  1  0.23189800  0.76000300  0.67016100  1
  K  K4  1  0.74142400  0.74106900  0.16898300  1
  K  K5  1  0.24142400  0.25893100  0.33101700  1
  K  K6  1  0.25857600  0.25893100  0.83101700  1
  K  K7  1  0.75857600  0.74106900  0.66898300  1
  Mn  Mn8  1  0.00000000  0.00000000  0.00000000  1
  Mn  Mn9  1  0.50000000  0.00000000  0.50000000  1
  Mn  Mn10  1  0.50000000  0.50000000  0.00000000  1
  Mn  Mn11  1  0.00000000  0.50000000  0.50000000  1
  H  H12  1  0.25791100  0.60869200  0.92161900  1
  H  H13  1  0.75791100  0.39130800  0.57838100  1
  H  H14  1  0.74208900  0.39130800  0.07838100  1
  H  H15  1  0.24208900  0.60869200  0.42161900  1
  H  H16  1  0.35890700  0.73158600  0.92155300  1
  H  H17  1  0.85890700  0.26841400  0.57844700  1
  H  H18  1  0.64109300  0.26841400  0.07844700  1
  H  H19  1  0.14109300  0.73158600  0.42155300  1
  H  H20  1  0.24878500  0.38297800  0.07901200  1
  H  H21  1  0.74878500  0.61702200  0.42098800  1
  H  H22  1  0.75121500  0.61702200  0.92098800  1
  H  H23  1  0.25121500  0.38297800  0.57901200  1
  H  H24  1  0.35900700  0.26605300  0.08847800  1
  H  H25  1  0.85900700  0.73394700  0.41152200  1
  H  H26  1  0.64099300  0.73394700  0.91152200  1
  H  H27  1  0.14099300  0.26605300  0.58847800  1
  H  H28  1  0.28579900  0.96917100  0.94239000  1
  H  H29  1  0.78579900  0.03082900  0.55761000  1
  H  H30  1  0.71420100  0.03082900  0.05761000  1
  H  H31  1  0.21420100  0.96917100  0.44239000  1
  H  H32  1  0.28535300  0.04773900  0.05345800  1
  H  H33  1  0.78535300  0.95226100  0.44654200  1
  H  H34  1  0.71464700  0.95226100  0.94654200  1
  H  H35  1  0.21464700  0.04773900  0.55345800  1
  H  H36  1  0.01642500  0.27151200  0.07321000  1
  H  H37  1  0.51642500  0.72848800  0.42679000  1
  H  H38  1  0.98357500  0.72848800  0.92679000  1
  H  H39  1  0.48357500  0.27151200  0.57321000  1
  H  H40  1  0.98447000  0.27977600  0.94518300  1
  H  H41  1  0.48447000  0.72022400  0.55481700  1
  H  H42  1  0.01553000  0.72022400  0.05481700  1
  H  H43  1  0.51553000  0.27977600  0.44518300  1
  S  S44  1  0.50501400  0.04733100  0.20354100  1
  S  S45  1  0.00501400  0.95266900  0.29645900  1
  S  S46  1  0.49498600  0.95266900  0.79645900  1
  S  S47  1  0.99498600  0.04733100  0.70354100  1
  S  S48  1  0.99264400  0.47733600  0.20743200  1
  S  S49  1  0.49264400  0.52266400  0.29256800  1
  S  S50  1  0.00735600  0.52266400  0.79256800  1
  S  S51  1  0.50735600  0.47733600  0.70743200  1
  O  O52  1  0.37321400  0.88373000  0.85434500  1
  O  O53  1  0.87321400  0.11627000  0.64565500  1
  O  O54  1  0.62678600  0.11627000  0.14565500  1
  O  O55  1  0.12678600  0.88373000  0.35434500  1
  O  O56  1  0.37415200  0.11283600  0.15853000  1
  O  O57  1  0.87415200  0.88716400  0.34147000  1
  O  O58  1  0.62584800  0.88716400  0.84147000  1
  O  O59  1  0.12584800  0.11283600  0.65853000  1
  O  O60  1  0.08843200  0.39325100  0.14611500  1
  O  O61  1  0.58843200  0.60674900  0.35388500  1
  O  O62  1  0.91156800  0.60674900  0.85388500  1
  O  O63  1  0.41156800  0.39325100  0.64611500  1
  O  O64  1  0.84713800  0.45190000  0.17648000  1
  O  O65  1  0.34713800  0.54810000  0.32352000  1
  O  O66  1  0.15286200  0.54810000  0.82352000  1
  O  O67  1  0.65286200  0.45190000  0.67648000  1
  O  O68  1  0.01522100  0.93281200  0.17630800  1
  O  O69  1  0.51522100  0.06718800  0.32369200  1
  O  O70  1  0.98477900  0.06718800  0.82369200  1
  O  O71  1  0.48477900  0.93281200  0.67630800  1
  O  O72  1  0.50504800  0.90551700  0.18490100  1
  O  O73  1  0.00504800  0.09448300  0.31509900  1
  O  O74  1  0.49495200  0.09448300  0.81509900  1
  O  O75  1  0.99495200  0.90551700  0.68490100  1
  O  O76  1  0.51089700  0.56349700  0.17073100  1
  O  O77  1  0.01089700  0.43650300  0.32926900  1
  O  O78  1  0.48910300  0.43650300  0.82926900  1
  O  O79  1  0.98910300  0.56349700  0.67073100  1
  O  O80  1  0.02495800  0.62080300  0.18222800  1
  O  O81  1  0.52495800  0.37919700  0.31777200  1
  O  O82  1  0.97504200  0.37919700  0.81777200  1
  O  O83  1  0.47504200  0.62080300  0.68222800  1
  O  O84  1  0.33396200  0.64554000  0.96497400  1
  O  O85  1  0.83396200  0.35446000  0.53502600  1
  O  O86  1  0.66603800  0.35446000  0.03502600  1
  O  O87  1  0.16603800  0.64554000  0.46497400  1
  O  O88  1  0.33442500  0.35176100  0.04464400  1
  O  O89  1  0.83442500  0.64823900  0.45535600  1
  O  O90  1  0.66557500  0.64823900  0.95535600  1
  O  O91  1  0.16557500  0.35176100  0.54464400  1
  O  O92  1  0.22685900  0.01826700  0.99270500  1
  O  O93  1  0.72685900  0.98173300  0.50729500  1
  O  O94  1  0.77314100  0.98173300  0.00729500  1
  O  O95  1  0.27314100  0.01826700  0.49270500  1
  O  O96  1  0.98524800  0.21701800  0.01360300  1
  O  O97  1  0.48524800  0.78298200  0.48639700  1
  O  O98  1  0.01475200  0.78298200  0.98639700  1
  O  O99  1  0.51475200  0.21701800  0.51360300  1
