# generated using pymatgen
data_Fe2P2H4O9
_symmetry_space_group_name_H-M   'P 1'
_cell_length_a   14.36251600
_cell_length_b   6.53391200
_cell_length_c   9.39588865
_cell_angle_alpha   52.25326523
_cell_angle_beta   90.00000000
_cell_angle_gamma   90.00000000
_symmetry_Int_Tables_number   1
_chemical_formula_structural   Fe2P2H4O9
_chemical_formula_sum   'Fe8 P8 H16 O36'
_cell_volume   697.21519328
_cell_formula_units_Z   4
loop_
 _symmetry_equiv_pos_site_id
 _symmetry_equiv_pos_as_xyz
  1  'x, y, z'
loop_
 _atom_site_type_symbol
 _atom_site_label
 _atom_site_symmetry_multiplicity
 _atom_site_fract_x
 _atom_site_fract_y
 _atom_site_fract_z
 _atom_site_occupancy
  Fe  Fe0  1  0.61014000  0.81838700  0.91836000  1
  Fe  Fe1  1  0.11014000  0.18161300  0.58164000  1
  Fe  Fe2  1  0.38986000  0.18161300  0.08164000  1
  Fe  Fe3  1  0.88986000  0.81838700  0.41836000  1
  Fe  Fe4  1  0.24720900  0.70372300  0.34591300  1
  Fe  Fe5  1  0.74720900  0.29627700  0.15408700  1
  Fe  Fe6  1  0.75279100  0.29627700  0.65408700  1
  Fe  Fe7  1  0.25279100  0.70372300  0.84591300  1
  P  P8  1  0.41434100  0.61102500  0.14752600  1
  P  P9  1  0.91434100  0.38897500  0.35247400  1
  P  P10  1  0.58565900  0.38897500  0.85247400  1
  P  P11  1  0.08565900  0.61102500  0.64752600  1
  P  P12  1  0.31295200  0.14664300  0.42196500  1
  P  P13  1  0.81295200  0.85335700  0.07803500  1
  P  P14  1  0.68704800  0.85335700  0.57803500  1
  P  P15  1  0.18704800  0.14664300  0.92196500  1
  H  H16  1  0.44873100  0.97814900  0.68372300  1
  H  H17  1  0.94873100  0.02185100  0.81627700  1
  H  H18  1  0.55126900  0.02185100  0.31627700  1
  H  H19  1  0.05126900  0.97814900  0.18372300  1
  H  H20  1  0.47469700  0.16503400  0.72916100  1
  H  H21  1  0.97469700  0.83496600  0.77083900  1
  H  H22  1  0.52530300  0.83496600  0.27083900  1
  H  H23  1  0.02530300  0.16503400  0.22916100  1
  H  H24  1  0.39711300  0.63817800  0.53560900  1
  H  H25  1  0.89711300  0.36182200  0.96439100  1
  H  H26  1  0.60288700  0.36182200  0.46439100  1
  H  H27  1  0.10288700  0.63817800  0.03560900  1
  H  H28  1  0.32497300  0.44056800  0.68249800  1
  H  H29  1  0.82497300  0.55943200  0.81750200  1
  H  H30  1  0.67502700  0.55943200  0.31750200  1
  H  H31  1  0.17502700  0.44056800  0.18249800  1
  O  O32  1  0.51785500  0.67283500  0.12612600  1
  O  O33  1  0.01785500  0.32716500  0.37387400  1
  O  O34  1  0.48214500  0.32716500  0.87387400  1
  O  O35  1  0.98214500  0.67283500  0.62612600  1
  O  O36  1  0.35750600  0.80190500  0.15648300  1
  O  O37  1  0.85750600  0.19809500  0.34351700  1
  O  O38  1  0.64249400  0.19809500  0.84351700  1
  O  O39  1  0.14249400  0.80190500  0.65648300  1
  O  O40  1  0.37328600  0.57057900  0.01497500  1
  O  O41  1  0.87328600  0.42942100  0.48502500  1
  O  O42  1  0.62671400  0.42942100  0.98502500  1
  O  O43  1  0.12671400  0.57057900  0.51497500  1
  O  O44  1  0.40542300  0.32867600  0.34431600  1
  O  O45  1  0.90542300  0.67132400  0.15568400  1
  O  O46  1  0.59457700  0.67132400  0.65568400  1
  O  O47  1  0.09457700  0.32867600  0.84431600  1
  O  O48  1  0.23088600  0.32159700  0.39601800  1
  O  O49  1  0.73088600  0.67840300  0.10398200  1
  O  O50  1  0.76911400  0.67840300  0.60398200  1
  O  O51  1  0.26911400  0.32159700  0.89601800  1
  O  O52  1  0.29904000  0.05587400  0.30581600  1
  O  O53  1  0.79904000  0.94412600  0.19418400  1
  O  O54  1  0.70096000  0.94412600  0.69418400  1
  O  O55  1  0.20096000  0.05587400  0.80581600  1
  O  O56  1  0.33823400  0.93009600  0.61771500  1
  O  O57  1  0.83823400  0.06990400  0.88228500  1
  O  O58  1  0.66176600  0.06990400  0.38228500  1
  O  O59  1  0.16176600  0.93009600  0.11771500  1
  O  O60  1  0.50205900  0.04230500  0.71365100  1
  O  O61  1  0.00205900  0.95769500  0.78634900  1
  O  O62  1  0.49794100  0.95769500  0.28634900  1
  O  O63  1  0.99794100  0.04230500  0.21365100  1
  O  O64  1  0.34917100  0.51322600  0.56103900  1
  O  O65  1  0.84917100  0.48677400  0.93896100  1
  O  O66  1  0.65082900  0.48677400  0.43896100  1
  O  O67  1  0.15082900  0.51322600  0.06103900  1
