# generated using pymatgen
data_CrCuS2
_symmetry_space_group_name_H-M   'P 1'
_cell_length_a   6.44923630
_cell_length_b   6.44923630
_cell_length_c   6.44923652
_cell_angle_alpha   31.70166542
_cell_angle_beta   31.70166542
_cell_angle_gamma   31.70165559
_symmetry_Int_Tables_number   1
_chemical_formula_structural   CrCuS2
_chemical_formula_sum   'Cr1 Cu1 S2'
_cell_volume   65.78329177
_cell_formula_units_Z   1
loop_
 _symmetry_equiv_pos_site_id
 _symmetry_equiv_pos_as_xyz
  1  'x, y, z'
loop_
 _atom_site_type_symbol
 _atom_site_label
 _atom_site_symmetry_multiplicity
 _atom_site_fract_x
 _atom_site_fract_y
 _atom_site_fract_z
 _atom_site_occupancy
  Cr  Cr0  1  0.99942200  0.99942200  0.99942200  1
  Cu  Cu1  1  0.14592000  0.14592000  0.14592000  1
  S  S2  1  0.74486500  0.74486500  0.74486500  1
  S  S3  1  0.26609300  0.26609300  0.26609300  1
