# generated using pymatgen
data_Ni3(AsO4)2
_symmetry_space_group_name_H-M   'P 1'
_cell_length_a   6.02000700
_cell_length_b   6.44267964
_cell_length_c   8.28697801
_cell_angle_alpha   89.99629770
_cell_angle_beta   90.00003288
_cell_angle_gamma   117.85313147
_symmetry_Int_Tables_number   1
_chemical_formula_structural   Ni3(AsO4)2
_chemical_formula_sum   'Ni6 As4 O16'
_cell_volume   284.17426092
_cell_formula_units_Z   2
loop_
 _symmetry_equiv_pos_site_id
 _symmetry_equiv_pos_as_xyz
  1  'x, y, z'
loop_
 _atom_site_type_symbol
 _atom_site_label
 _atom_site_symmetry_multiplicity
 _atom_site_fract_x
 _atom_site_fract_y
 _atom_site_fract_z
 _atom_site_occupancy
  Ni  Ni0  1  0.49983300  0.99999500  0.50000100  1
  Ni  Ni1  1  0.11623000  0.73237400  0.25007100  1
  Ni  Ni2  1  0.38383700  0.26763700  0.74993400  1
  Ni  Ni3  1  0.99982700  0.00000400  0.99999300  1
  Ni  Ni4  1  0.88392400  0.26764400  0.75012000  1
  Ni  Ni5  1  0.61629600  0.73236300  0.24989100  1
  As  As6  1  0.37642000  0.75304100  0.88498200  1
  As  As7  1  0.62337700  0.24696100  0.11501700  1
  As  As8  1  0.12345900  0.24701600  0.38495800  1
  As  As9  1  0.87644500  0.75298200  0.61503900  1
  O  O10  1  0.25264400  0.50519200  0.76677700  1
  O  O11  1  0.74746500  0.49480800  0.23322200  1
  O  O12  1  0.24751800  0.49482400  0.26664600  1
  O  O13  1  0.75268200  0.50517500  0.73335100  1
  O  O14  1  0.99944800  0.99858400  0.74964500  1
  O  O15  1  0.00086200  0.00141400  0.25035000  1
  O  O16  1  0.50083700  0.00143900  0.24970600  1
  O  O17  1  0.49940000  0.99856100  0.75029300  1
  O  O18  1  0.85783300  0.24145900  0.99912000  1
  O  O19  1  0.61636900  0.75853500  0.00088300  1
  O  O20  1  0.64202400  0.75850400  0.49914500  1
  O  O21  1  0.88352200  0.24149600  0.50085900  1
  O  O22  1  0.14199400  0.75858800  0.00084500  1
  O  O23  1  0.38340300  0.24140800  0.99915200  1
  O  O24  1  0.35795600  0.24156000  0.50084300  1
  O  O25  1  0.11639600  0.75843600  0.49915700  1
