# generated using pymatgen
data_K4MgFe3(PO4)5
_symmetry_space_group_name_H-M   'P 1'
_cell_length_a   9.85975688
_cell_length_b   9.85975688
_cell_length_c   9.66376560
_cell_angle_alpha   89.88085875
_cell_angle_beta   89.88085875
_cell_angle_gamma   89.74729322
_symmetry_Int_Tables_number   1
_chemical_formula_structural   K4MgFe3(PO4)5
_chemical_formula_sum   'K8 Mg2 Fe6 P10 O40'
_cell_volume   939.44791431
_cell_formula_units_Z   2
loop_
 _symmetry_equiv_pos_site_id
 _symmetry_equiv_pos_as_xyz
  1  'x, y, z'
loop_
 _atom_site_type_symbol
 _atom_site_label
 _atom_site_symmetry_multiplicity
 _atom_site_fract_x
 _atom_site_fract_y
 _atom_site_fract_z
 _atom_site_occupancy
  K  K0  1  0.43170900  0.33259900  0.95772000  1
  K  K1  1  0.57043600  0.66785800  0.96286100  1
  K  K2  1  0.92892500  0.17095100  0.54129600  1
  K  K3  1  0.07322500  0.83242700  0.53557400  1
  K  K4  1  0.33259900  0.43170900  0.45772000  1
  K  K5  1  0.66785800  0.57043600  0.46286100  1
  K  K6  1  0.17095100  0.92892500  0.04129600  1
  K  K7  1  0.83242700  0.07322500  0.03557400  1
  Mg  Mg8  1  0.80581900  0.42761800  0.78868800  1
  Mg  Mg9  1  0.42761800  0.80581900  0.28868800  1
  Fe  Fe10  1  0.18960600  0.57270100  0.78840400  1
  Fe  Fe11  1  0.30826200  0.07258900  0.71066200  1
  Fe  Fe12  1  0.69269300  0.92688600  0.71191700  1
  Fe  Fe13  1  0.57270100  0.18960600  0.28840400  1
  Fe  Fe14  1  0.92688600  0.69269300  0.21191700  1
  Fe  Fe15  1  0.07258900  0.30826200  0.21066200  1
  P  P16  1  0.50031600  0.99918600  0.99940800  1
  P  P17  1  0.91630500  0.74657000  0.86587400  1
  P  P18  1  0.08089500  0.25391000  0.86523000  1
  P  P19  1  0.41721200  0.75413600  0.63540600  1
  P  P20  1  0.58011700  0.24555300  0.63447200  1
  P  P21  1  0.99918600  0.50031600  0.49940800  1
  P  P22  1  0.74657000  0.91630500  0.36587400  1
  P  P23  1  0.25391000  0.08089500  0.36523000  1
  P  P24  1  0.24555300  0.58011700  0.13447200  1
  P  P25  1  0.75413600  0.41721200  0.13540600  1
  O  O26  1  0.27591000  0.59061500  0.97776400  1
  O  O27  1  0.71794500  0.40863200  0.98274800  1
  O  O28  1  0.38544700  0.05823200  0.90604300  1
  O  O29  1  0.61996700  0.94675400  0.90743400  1
  O  O30  1  0.82929300  0.62519800  0.82804700  1
  O  O31  1  0.16966800  0.37885500  0.82580500  1
  O  O32  1  0.06863300  0.72384000  0.82428700  1
  O  O33  1  0.93257400  0.27374300  0.82463600  1
  O  O34  1  0.86981200  0.87742100  0.78540000  1
  O  O35  1  0.13529800  0.12599300  0.78549400  1
  O  O36  1  0.36737700  0.62883300  0.72126800  1
  O  O37  1  0.62588800  0.37063800  0.71475200  1
  O  O38  1  0.56818500  0.77903700  0.67796300  1
  O  O39  1  0.42774800  0.22008100  0.67138900  1
  O  O40  1  0.32924500  0.87966300  0.67455200  1
  O  O41  1  0.66671900  0.11845700  0.67288800  1
  O  O42  1  0.11687700  0.55528900  0.59189300  1
  O  O43  1  0.88232600  0.44499500  0.58749800  1
  O  O44  1  0.78303400  0.90954700  0.52165100  1
  O  O45  1  0.21923700  0.09449100  0.52097500  1
  O  O46  1  0.59061500  0.27591000  0.47776400  1
  O  O47  1  0.40863200  0.71794500  0.48274800  1
  O  O48  1  0.94675400  0.61996700  0.40743400  1
  O  O49  1  0.05823200  0.38544700  0.40604300  1
  O  O50  1  0.37885500  0.16966800  0.32580500  1
  O  O51  1  0.62519800  0.82929300  0.32804700  1
  O  O52  1  0.27374300  0.93257400  0.32463600  1
  O  O53  1  0.72384000  0.06863300  0.32428700  1
  O  O54  1  0.87742100  0.86981200  0.28540000  1
  O  O55  1  0.12599300  0.13529800  0.28549400  1
  O  O56  1  0.37063800  0.62588800  0.21475200  1
  O  O57  1  0.62883300  0.36737700  0.22126800  1
  O  O58  1  0.22008100  0.42774800  0.17138900  1
  O  O59  1  0.77903700  0.56818500  0.17796300  1
  O  O60  1  0.11845700  0.66671900  0.17288800  1
  O  O61  1  0.87966300  0.32924500  0.17455200  1
  O  O62  1  0.55528900  0.11687700  0.09189300  1
  O  O63  1  0.44499500  0.88232600  0.08749800  1
  O  O64  1  0.90954700  0.78303400  0.02165100  1
  O  O65  1  0.09449100  0.21923700  0.02097500  1
