# generated using pymatgen
data_Nb6Co16Ge7
_symmetry_space_group_name_H-M   'P 1'
_cell_length_a   8.04937833
_cell_length_b   8.04937833
_cell_length_c   8.04937833
_cell_angle_alpha   60.00000000
_cell_angle_beta   60.00000000
_cell_angle_gamma   60.00000000
_symmetry_Int_Tables_number   1
_chemical_formula_structural   Nb6Co16Ge7
_chemical_formula_sum   'Nb6 Co16 Ge7'
_cell_volume   368.78395915
_cell_formula_units_Z   1
loop_
 _symmetry_equiv_pos_site_id
 _symmetry_equiv_pos_as_xyz
  1  'x, y, z'
loop_
 _atom_site_type_symbol
 _atom_site_label
 _atom_site_symmetry_multiplicity
 _atom_site_fract_x
 _atom_site_fract_y
 _atom_site_fract_z
 _atom_site_occupancy
  Nb  Nb0  1  0.20110400  0.79889600  0.79889600  1
  Nb  Nb1  1  0.79889600  0.79889600  0.20110400  1
  Nb  Nb2  1  0.79889600  0.20110400  0.20110400  1
  Nb  Nb3  1  0.20110400  0.20110400  0.79889600  1
  Nb  Nb4  1  0.79889600  0.20110400  0.79889600  1
  Nb  Nb5  1  0.20110400  0.79889600  0.20110400  1
  Co  Co6  1  0.61905300  0.61905300  0.14284000  1
  Co  Co7  1  0.16583000  0.50251100  0.16583000  1
  Co  Co8  1  0.85716000  0.38094700  0.38094700  1
  Co  Co9  1  0.49748900  0.83417000  0.83417000  1
  Co  Co10  1  0.50251100  0.16583000  0.16583000  1
  Co  Co11  1  0.83417000  0.83417000  0.49748900  1
  Co  Co12  1  0.16583000  0.16583000  0.50251100  1
  Co  Co13  1  0.14284000  0.61905300  0.61905300  1
  Co  Co14  1  0.16583000  0.16583000  0.16583000  1
  Co  Co15  1  0.38094700  0.38094700  0.85716000  1
  Co  Co16  1  0.61905300  0.61905300  0.61905300  1
  Co  Co17  1  0.38094700  0.85716000  0.38094700  1
  Co  Co18  1  0.38094700  0.38094700  0.38094700  1
  Co  Co19  1  0.83417000  0.83417000  0.83417000  1
  Co  Co20  1  0.61905300  0.14284000  0.61905300  1
  Co  Co21  1  0.83417000  0.49748900  0.83417000  1
  Ge  Ge22  1  0.50000000  0.00000000  0.50000000  1
  Ge  Ge23  1  0.50000000  0.50000000  0.00000000  1
  Ge  Ge24  1  0.50000000  0.50000000  0.50000000  1
  Ge  Ge25  1  0.00000000  0.00000000  0.50000000  1
  Ge  Ge26  1  0.00000000  0.50000000  0.00000000  1
  Ge  Ge27  1  0.00000000  0.50000000  0.50000000  1
  Ge  Ge28  1  0.50000000  0.00000000  0.00000000  1
