# generated using pymatgen
data_Y7C3I6O
_symmetry_space_group_name_H-M   'P 1'
_cell_length_a   3.86192500
_cell_length_b   11.52909400
_cell_length_c   22.65131900
_cell_angle_alpha   90.00000000
_cell_angle_beta   90.00000000
_cell_angle_gamma   90.00000000
_symmetry_Int_Tables_number   1
_chemical_formula_structural   Y7C3I6O
_chemical_formula_sum   'Y14 C6 I12 O2'
_cell_volume   1008.53857005
_cell_formula_units_Z   2
loop_
 _symmetry_equiv_pos_site_id
 _symmetry_equiv_pos_as_xyz
  1  'x, y, z'
loop_
 _atom_site_type_symbol
 _atom_site_label
 _atom_site_symmetry_multiplicity
 _atom_site_fract_x
 _atom_site_fract_y
 _atom_site_fract_z
 _atom_site_occupancy
  Y  Y0  1  0.50000000  0.63721100  0.96947800  1
  Y  Y1  1  0.00000000  0.70195600  0.66483100  1
  Y  Y2  1  0.50000000  0.51622600  0.75000000  1
  Y  Y3  1  0.00000000  0.43761400  0.60500800  1
  Y  Y4  1  0.00000000  0.29804400  0.16483100  1
  Y  Y5  1  0.50000000  0.48377400  0.25000000  1
  Y  Y6  1  0.50000000  0.36278900  0.46947800  1
  Y  Y7  1  0.00000000  0.43761400  0.89499200  1
  Y  Y8  1  0.00000000  0.56238600  0.10500800  1
  Y  Y9  1  0.00000000  0.70195600  0.83516900  1
  Y  Y10  1  0.50000000  0.63721100  0.53052200  1
  Y  Y11  1  0.50000000  0.36278900  0.03052200  1
  Y  Y12  1  0.00000000  0.29804400  0.33516900  1
  Y  Y13  1  0.00000000  0.56238600  0.39499200  1
  C  C14  1  0.50000000  0.42395400  0.13656300  1
  C  C15  1  0.50000000  0.57604600  0.63656300  1
  C  C16  1  0.00000000  0.50000000  0.00000000  1
  C  C17  1  0.50000000  0.57604600  0.86343700  1
  C  C18  1  0.00000000  0.50000000  0.50000000  1
  C  C19  1  0.50000000  0.42395400  0.36343700  1
  I  I20  1  0.50000000  0.12995900  0.25000000  1
  I  I21  1  0.00000000  0.69290100  0.25000000  1
  I  I22  1  0.00000000  0.14260700  0.05807800  1
  I  I23  1  0.50000000  0.22795200  0.90813100  1
  I  I24  1  0.50000000  0.77204800  0.40813100  1
  I  I25  1  0.00000000  0.85739300  0.94192200  1
  I  I26  1  0.00000000  0.14260700  0.44192200  1
  I  I27  1  0.50000000  0.77204800  0.09186900  1
  I  I28  1  0.00000000  0.85739300  0.55807800  1
  I  I29  1  0.00000000  0.30709900  0.75000000  1
  I  I30  1  0.50000000  0.22795200  0.59186900  1
  I  I31  1  0.50000000  0.87004100  0.75000000  1
  O  O32  1  0.00000000  0.61281200  0.75000000  1
  O  O33  1  0.00000000  0.38718800  0.25000000  1
