# generated using pymatgen
data_CsScAs2(HO4)2
_symmetry_space_group_name_H-M   'P 1'
_cell_length_a   9.57495800
_cell_length_b   5.63040800
_cell_length_c   15.29459274
_cell_angle_alpha   84.13969318
_cell_angle_beta   90.00000000
_cell_angle_gamma   90.00000000
_symmetry_Int_Tables_number   1
_chemical_formula_structural   CsScAs2(HO4)2
_chemical_formula_sum   'Cs4 Sc4 As8 H8 O32'
_cell_volume   820.23631996
_cell_formula_units_Z   4
loop_
 _symmetry_equiv_pos_site_id
 _symmetry_equiv_pos_as_xyz
  1  'x, y, z'
loop_
 _atom_site_type_symbol
 _atom_site_label
 _atom_site_symmetry_multiplicity
 _atom_site_fract_x
 _atom_site_fract_y
 _atom_site_fract_z
 _atom_site_occupancy
  Cs  Cs0  1  0.99416000  0.77084800  0.39157000  1
  Cs  Cs1  1  0.49416000  0.22915200  0.10843000  1
  Cs  Cs2  1  0.00584000  0.22915200  0.60843000  1
  Cs  Cs3  1  0.50584000  0.77084800  0.89157000  1
  Sc  Sc4  1  0.03464400  0.24370500  0.15297000  1
  Sc  Sc5  1  0.53464400  0.75629500  0.34703000  1
  Sc  Sc6  1  0.96535600  0.75629500  0.84703000  1
  Sc  Sc7  1  0.46535600  0.24370500  0.65297000  1
  As  As8  1  0.85097300  0.78469600  0.05960500  1
  As  As9  1  0.35097300  0.21530400  0.44039500  1
  As  As10  1  0.14902700  0.21530400  0.94039500  1
  As  As11  1  0.64902700  0.78469600  0.55960500  1
  As  As12  1  0.74897300  0.28087000  0.30868700  1
  As  As13  1  0.24897300  0.71913000  0.19131300  1
  As  As14  1  0.25102700  0.71913000  0.69131300  1
  As  As15  1  0.75102700  0.28087000  0.80868700  1
  H  H16  1  0.69226100  0.66940300  0.17130700  1
  H  H17  1  0.19226100  0.33059700  0.32869300  1
  H  H18  1  0.30773900  0.33059700  0.82869300  1
  H  H19  1  0.80773900  0.66940300  0.67130700  1
  H  H20  1  0.70891400  0.25759100  0.45904400  1
  H  H21  1  0.20891400  0.74240900  0.04095600  1
  H  H22  1  0.29108600  0.74240900  0.54095600  1
  H  H23  1  0.79108600  0.25759100  0.95904400  1
  O  O24  1  0.88634500  0.07477900  0.07680100  1
  O  O25  1  0.38634500  0.92522100  0.42319900  1
  O  O26  1  0.11365500  0.92522100  0.92319900  1
  O  O27  1  0.61365500  0.07477900  0.57680100  1
  O  O28  1  0.96928700  0.58650200  0.10643000  1
  O  O29  1  0.46928700  0.41349800  0.39357000  1
  O  O30  1  0.03071300  0.41349800  0.89357000  1
  O  O31  1  0.53071300  0.58650200  0.60643000  1
  O  O32  1  0.82191000  0.75758800  0.95147100  1
  O  O33  1  0.32191000  0.24241200  0.54852900  1
  O  O34  1  0.17809000  0.24241200  0.04852900  1
  O  O35  1  0.67809000  0.75758800  0.45147100  1
  O  O36  1  0.68339800  0.71599400  0.10567100  1
  O  O37  1  0.18339800  0.28400600  0.39432900  1
  O  O38  1  0.31660200  0.28400600  0.89432900  1
  O  O39  1  0.81660200  0.71599400  0.60567100  1
  O  O40  1  0.62948800  0.07134000  0.28722100  1
  O  O41  1  0.12948800  0.92866000  0.21277900  1
  O  O42  1  0.37051200  0.92866000  0.71277900  1
  O  O43  1  0.87051200  0.07134000  0.78722100  1
  O  O44  1  0.69365300  0.56675900  0.27701300  1
  O  O45  1  0.19365300  0.43324100  0.22298700  1
  O  O46  1  0.30634700  0.43324100  0.72298700  1
  O  O47  1  0.80634700  0.56675900  0.77701300  1
  O  O48  1  0.90761100  0.22836600  0.26530600  1
  O  O49  1  0.40761100  0.77163400  0.23469400  1
  O  O50  1  0.09238900  0.77163400  0.73469400  1
  O  O51  1  0.59238900  0.22836600  0.76530600  1
  O  O52  1  0.79433300  0.26286100  0.42258600  1
  O  O53  1  0.29433300  0.73713900  0.07741400  1
  O  O54  1  0.20566700  0.73713900  0.57741400  1
  O  O55  1  0.70566700  0.26286100  0.92258600  1
