# generated using pymatgen
data_Fe3B7IO13
_symmetry_space_group_name_H-M   'P 1'
_cell_length_a   8.75888900
_cell_length_b   8.76254800
_cell_length_c   12.38782500
_cell_angle_alpha   90.00000000
_cell_angle_beta   90.00000000
_cell_angle_gamma   90.00000000
_symmetry_Int_Tables_number   1
_chemical_formula_structural   Fe3B7IO13
_chemical_formula_sum   'Fe12 B28 I4 O52'
_cell_volume   950.76786408
_cell_formula_units_Z   4
loop_
 _symmetry_equiv_pos_site_id
 _symmetry_equiv_pos_as_xyz
  1  'x, y, z'
loop_
 _atom_site_type_symbol
 _atom_site_label
 _atom_site_symmetry_multiplicity
 _atom_site_fract_x
 _atom_site_fract_y
 _atom_site_fract_z
 _atom_site_occupancy
  Fe  Fe0  1  0.00077600  0.98020000  0.01048400  1
  Fe  Fe1  1  0.49922400  0.98020000  0.51048400  1
  Fe  Fe2  1  0.49824600  0.51782400  0.50762500  1
  Fe  Fe3  1  0.00175400  0.51782400  0.00762500  1
  Fe  Fe4  1  0.24202000  0.74864500  0.74215200  1
  Fe  Fe5  1  0.99824600  0.48217600  0.50762500  1
  Fe  Fe6  1  0.74202000  0.25135500  0.74215200  1
  Fe  Fe7  1  0.75798000  0.25135500  0.24215200  1
  Fe  Fe8  1  0.99922400  0.01980000  0.51048400  1
  Fe  Fe9  1  0.50077600  0.01980000  0.01048400  1
  Fe  Fe10  1  0.25798000  0.74864500  0.24215200  1
  Fe  Fe11  1  0.50175400  0.48217600  0.00762500  1
  B  B12  1  0.00118500  0.49645800  0.75601100  1
  B  B13  1  0.99881500  0.50354200  0.25601100  1
  B  B14  1  0.54859000  0.75134500  0.85594500  1
  B  B15  1  0.24325000  0.24498600  0.00396900  1
  B  B16  1  0.25675000  0.24498600  0.50396900  1
  B  B17  1  0.49881500  0.49645800  0.25601100  1
  B  B18  1  0.24392600  0.40017700  0.17651800  1
  B  B19  1  0.25701900  0.09633800  0.67739000  1
  B  B20  1  0.04859000  0.24865500  0.85594500  1
  B  B21  1  0.09316800  0.24983500  0.32883200  1
  B  B22  1  0.40683200  0.24983500  0.82883200  1
  B  B23  1  0.50130200  0.99725400  0.75733200  1
  B  B24  1  0.00130200  0.00274600  0.75733200  1
  B  B25  1  0.74325000  0.75501400  0.00396900  1
  B  B26  1  0.50118500  0.50354200  0.75601100  1
  B  B27  1  0.49869800  0.00274600  0.25733200  1
  B  B28  1  0.74298100  0.90366200  0.17739000  1
  B  B29  1  0.75607400  0.59982300  0.67651800  1
  B  B30  1  0.25607400  0.40017700  0.67651800  1
  B  B31  1  0.75675000  0.75501400  0.50396900  1
  B  B32  1  0.45141000  0.24865500  0.35594500  1
  B  B33  1  0.74392600  0.59982300  0.17651800  1
  B  B34  1  0.90683200  0.75016500  0.82883200  1
  B  B35  1  0.99869800  0.99725400  0.25733200  1
  B  B36  1  0.24298100  0.09633800  0.17739000  1
  B  B37  1  0.59316800  0.75016500  0.32883200  1
  B  B38  1  0.95141000  0.75134500  0.35594500  1
  B  B39  1  0.75701900  0.90366200  0.67739000  1
  I  I40  1  0.75482700  0.25109700  0.51002000  1
  I  I41  1  0.24517300  0.74890300  0.01002000  1
  I  I42  1  0.25482700  0.74890300  0.51002000  1
  I  I43  1  0.74517300  0.25109700  0.01002000  1
  O  O44  1  0.68436000  0.64030800  0.57398700  1
  O  O45  1  0.22627200  0.24941300  0.24456900  1
  O  O46  1  0.66504200  0.48760800  0.73565100  1
  O  O47  1  0.87884700  0.67637200  0.43957000  1
  O  O48  1  0.58785600  0.53968500  0.15942300  1
  O  O49  1  0.95408700  0.59244100  0.84853900  1
  O  O50  1  0.82575500  0.87542900  0.57092200  1
  O  O51  1  0.14096100  0.17805500  0.43059600  1
  O  O52  1  0.17424500  0.12457100  0.07092200  1
  O  O53  1  0.53771500  0.33207800  0.28240100  1
  O  O54  1  0.64096100  0.82194500  0.43059600  1
  O  O55  1  0.67424500  0.87542900  0.07092200  1
  O  O56  1  0.09491300  0.05609400  0.66586300  1
  O  O57  1  0.04591300  0.40755900  0.34853900  1
  O  O58  1  0.16504200  0.51239200  0.73565100  1
  O  O59  1  0.16135100  0.97667100  0.23398000  1
  O  O60  1  0.53924500  0.90875000  0.85722700  1
  O  O61  1  0.91214400  0.53968500  0.65942300  1
  O  O62  1  0.72627200  0.75058700  0.24456900  1
  O  O63  1  0.31564000  0.35969200  0.07398700  1
  O  O64  1  0.40508700  0.05609400  0.16586300  1
  O  O65  1  0.12115300  0.32362800  0.93957000  1
  O  O66  1  0.37884700  0.32362800  0.43957000  1
  O  O67  1  0.03297500  0.83947700  0.78059500  1
  O  O68  1  0.96075500  0.90875000  0.35722700  1
  O  O69  1  0.35903900  0.17805500  0.93059600  1
  O  O70  1  0.54591300  0.59244100  0.34853900  1
  O  O71  1  0.08785600  0.46031500  0.15942300  1
  O  O72  1  0.83864900  0.02332900  0.73398000  1
  O  O73  1  0.45408700  0.40755900  0.84853900  1
  O  O74  1  0.62115300  0.67637200  0.93957000  1
  O  O75  1  0.27372800  0.24941300  0.74456900  1
  O  O76  1  0.96228500  0.33207800  0.78240100  1
  O  O77  1  0.59491300  0.94390600  0.66586300  1
  O  O78  1  0.85903900  0.82194500  0.93059600  1
  O  O79  1  0.33495800  0.51239200  0.23565100  1
  O  O80  1  0.46075500  0.09125000  0.35722700  1
  O  O81  1  0.18436000  0.35969200  0.57398700  1
  O  O82  1  0.96702500  0.16052300  0.28059500  1
  O  O83  1  0.81564000  0.64030800  0.07398700  1
  O  O84  1  0.41214400  0.46031500  0.65942300  1
  O  O85  1  0.33864900  0.97667100  0.73398000  1
  O  O86  1  0.46228500  0.66792200  0.78240100  1
  O  O87  1  0.90508700  0.94390600  0.16586300  1
  O  O88  1  0.03924500  0.09125000  0.85722700  1
  O  O89  1  0.53297500  0.16052300  0.78059500  1
  O  O90  1  0.83495800  0.48760800  0.23565100  1
  O  O91  1  0.32575500  0.12457100  0.57092200  1
  O  O92  1  0.03771500  0.66792200  0.28240100  1
  O  O93  1  0.66135100  0.02332900  0.23398000  1
  O  O94  1  0.46702500  0.83947700  0.28059500  1
  O  O95  1  0.77372800  0.75058700  0.74456900  1
