# generated using pymatgen
data_Ce2Ti2SiO9
_symmetry_space_group_name_H-M   'P 1'
_cell_length_a   5.79254027
_cell_length_b   7.69977735
_cell_length_c   8.98276507
_cell_angle_alpha   110.02102062
_cell_angle_beta   108.80965869
_cell_angle_gamma   89.99999719
_symmetry_Int_Tables_number   1
_chemical_formula_structural   Ce2Ti2SiO9
_chemical_formula_sum   'Ce4 Ti4 Si2 O18'
_cell_volume   353.57220591
_cell_formula_units_Z   2
loop_
 _symmetry_equiv_pos_site_id
 _symmetry_equiv_pos_as_xyz
  1  'x, y, z'
loop_
 _atom_site_type_symbol
 _atom_site_label
 _atom_site_symmetry_multiplicity
 _atom_site_fract_x
 _atom_site_fract_y
 _atom_site_fract_z
 _atom_site_occupancy
  Ce  Ce0  1  0.10448500  0.69457000  0.20897100  1
  Ce  Ce1  1  0.89551500  0.30543000  0.79102900  1
  Ce  Ce2  1  0.21186500  0.31482500  0.42373100  1
  Ce  Ce3  1  0.78813500  0.68517500  0.57626900  1
  Ti  Ti4  1  0.41856200  0.55184200  0.83712300  1
  Ti  Ti5  1  0.23983500  0.00000000  0.00000000  1
  Ti  Ti6  1  0.76016500  0.00000000  0.00000000  1
  Ti  Ti7  1  0.58143800  0.44815800  0.16287700  1
  Si  Si8  1  0.33568600  0.01735000  0.67137200  1
  Si  Si9  1  0.66431400  0.98265000  0.32862800  1
  O  O10  1  0.52817400  0.19060700  0.05634800  1
  O  O11  1  0.09344300  0.51600100  0.67340400  1
  O  O12  1  0.65687800  0.76490800  0.31375500  1
  O  O13  1  0.97705300  0.81593000  0.95410500  1
  O  O14  1  0.42003900  0.48399900  0.32659600  1
  O  O15  1  0.62495300  0.98422800  0.76056500  1
  O  O16  1  0.27196200  0.50000000  0.00000000  1
  O  O17  1  0.02294700  0.18407000  0.04589500  1
  O  O18  1  0.57996100  0.51600100  0.67340400  1
  O  O19  1  0.72803800  0.50000000  0.00000000  1
  O  O20  1  0.34312200  0.23509200  0.68624500  1
  O  O21  1  0.37504700  0.01577200  0.23943500  1
  O  O22  1  0.24109700  0.86346200  0.48219300  1
  O  O23  1  0.90655700  0.48399900  0.32659600  1
  O  O24  1  0.13561300  0.98422800  0.76056500  1
  O  O25  1  0.75890300  0.13653800  0.51780700  1
  O  O26  1  0.47182600  0.80939300  0.94365200  1
  O  O27  1  0.86438700  0.01577200  0.23943500  1
