# generated using pymatgen
data_Fe3(PO4)2
_symmetry_space_group_name_H-M   'P 1'
_cell_length_a   11.34747200
_cell_length_b   6.26676300
_cell_length_c   9.00772570
_cell_angle_alpha   80.19058523
_cell_angle_beta   90.00000000
_cell_angle_gamma   90.00000000
_symmetry_Int_Tables_number   1
_chemical_formula_structural   Fe3(PO4)2
_chemical_formula_sum   'Fe12 P8 O32'
_cell_volume   631.19165685
_cell_formula_units_Z   4
loop_
 _symmetry_equiv_pos_site_id
 _symmetry_equiv_pos_as_xyz
  1  'x, y, z'
loop_
 _atom_site_type_symbol
 _atom_site_label
 _atom_site_symmetry_multiplicity
 _atom_site_fract_x
 _atom_site_fract_y
 _atom_site_fract_z
 _atom_site_occupancy
  Fe  Fe0  1  0.91752900  0.66501300  0.72538800  1
  Fe  Fe1  1  0.08247100  0.33498700  0.27461200  1
  Fe  Fe2  1  0.19397000  0.11778500  0.63678500  1
  Fe  Fe3  1  0.80603000  0.88221500  0.36321500  1
  Fe  Fe4  1  0.30603000  0.61778500  0.63678500  1
  Fe  Fe5  1  0.88347700  0.12390200  0.92550500  1
  Fe  Fe6  1  0.58247100  0.16501300  0.72538800  1
  Fe  Fe7  1  0.69397000  0.38221500  0.36321500  1
  Fe  Fe8  1  0.41752900  0.83498700  0.27461200  1
  Fe  Fe9  1  0.38347700  0.37609800  0.07449500  1
  Fe  Fe10  1  0.11652300  0.87609800  0.07449500  1
  Fe  Fe11  1  0.61652300  0.62390200  0.92550500  1
  P  P12  1  0.58715700  0.69249500  0.60344200  1
  P  P13  1  0.08715700  0.80750500  0.39655800  1
  P  P14  1  0.91284300  0.19249500  0.60344200  1
  P  P15  1  0.86488000  0.61137700  0.09505300  1
  P  P16  1  0.36488000  0.88862300  0.90494700  1
  P  P17  1  0.63512000  0.11137700  0.09505300  1
  P  P18  1  0.13512000  0.38862300  0.90494700  1
  P  P19  1  0.41284300  0.30750500  0.39655800  1
  O  O20  1  0.96220600  0.76463600  0.46736900  1
  O  O21  1  0.56115000  0.90570500  0.13264400  1
  O  O22  1  0.67909500  0.67372000  0.48039900  1
  O  O23  1  0.08745200  0.01845600  0.27556800  1
  O  O24  1  0.93748900  0.82702400  0.07368300  1
  O  O25  1  0.46220600  0.73536400  0.53263100  1
  O  O26  1  0.37595600  0.13301600  0.30175900  1
  O  O27  1  0.41254800  0.51845600  0.27556800  1
  O  O28  1  0.22155700  0.37192200  0.77204300  1
  O  O29  1  0.56251100  0.32702400  0.07368300  1
  O  O30  1  0.29377600  0.89128100  0.05346100  1
  O  O31  1  0.79377600  0.60871900  0.94653900  1
  O  O32  1  0.53779400  0.26463600  0.46736900  1
  O  O33  1  0.93885000  0.40570500  0.13264400  1
  O  O34  1  0.20622400  0.39128100  0.05346100  1
  O  O35  1  0.70622400  0.10871900  0.94653900  1
  O  O36  1  0.32090500  0.32628000  0.51960100  1
  O  O37  1  0.77844300  0.62807800  0.22795700  1
  O  O38  1  0.03779400  0.23536400  0.53263100  1
  O  O39  1  0.72155700  0.12807800  0.22795700  1
  O  O40  1  0.17909500  0.82628000  0.51960100  1
  O  O41  1  0.12404400  0.63301600  0.30175900  1
  O  O42  1  0.82090500  0.17372000  0.48039900  1
  O  O43  1  0.06251100  0.17297600  0.92631700  1
  O  O44  1  0.91254800  0.98154400  0.72443200  1
  O  O45  1  0.43748900  0.67297600  0.92631700  1
  O  O46  1  0.27844300  0.87192200  0.77204300  1
  O  O47  1  0.62404400  0.86698400  0.69824100  1
  O  O48  1  0.87595600  0.36698400  0.69824100  1
  O  O49  1  0.43885000  0.09429500  0.86735600  1
  O  O50  1  0.58745200  0.48154400  0.72443200  1
  O  O51  1  0.06115000  0.59429500  0.86735600  1
