# generated using pymatgen
data_Na3VF6
_symmetry_space_group_name_H-M   'P 1'
_cell_length_a   5.82943800
_cell_length_b   5.60017800
_cell_length_c   9.80549114
_cell_angle_alpha   55.83275764
_cell_angle_beta   90.00000000
_cell_angle_gamma   90.00000000
_symmetry_Int_Tables_number   1
_chemical_formula_structural   Na3VF6
_chemical_formula_sum   'Na6 V2 F12'
_cell_volume   264.85875346
_cell_formula_units_Z   2
loop_
 _symmetry_equiv_pos_site_id
 _symmetry_equiv_pos_as_xyz
  1  'x, y, z'
loop_
 _atom_site_type_symbol
 _atom_site_label
 _atom_site_symmetry_multiplicity
 _atom_site_fract_x
 _atom_site_fract_y
 _atom_site_fract_z
 _atom_site_occupancy
  Na  Na0  1  0.55404800  0.72529300  0.25943900  1
  Na  Na1  1  0.05404800  0.27470700  0.24056100  1
  Na  Na2  1  0.44595200  0.27470700  0.74056100  1
  Na  Na3  1  0.94595200  0.72529300  0.75943900  1
  Na  Na4  1  0.50000000  0.50000000  0.00000000  1
  Na  Na5  1  0.00000000  0.50000000  0.50000000  1
  V  V6  1  0.50000000  0.00000000  0.50000000  1
  V  V7  1  0.00000000  0.00000000  0.00000000  1
  F  F8  1  0.22008900  0.75884900  0.57442800  1
  F  F9  1  0.72008900  0.24115100  0.92557200  1
  F  F10  1  0.77991100  0.24115100  0.42557200  1
  F  F11  1  0.27991100  0.75884900  0.07442800  1
  F  F12  1  0.32170400  0.34159700  0.44899900  1
  F  F13  1  0.82170400  0.65840300  0.05100100  1
  F  F14  1  0.67829600  0.65840300  0.55100100  1
  F  F15  1  0.17829600  0.34159700  0.94899900  1
  F  F16  1  0.06294400  0.10864800  0.77271700  1
  F  F17  1  0.56294400  0.89135200  0.72728300  1
  F  F18  1  0.93705600  0.89135200  0.22728300  1
  F  F19  1  0.43705600  0.10864800  0.27271700  1
