# generated using pymatgen
data_Fe2PO5
_symmetry_space_group_name_H-M   'P 1'
_cell_length_a   5.44016961
_cell_length_b   5.44012906
_cell_length_c   7.37623085
_cell_angle_alpha   68.15257018
_cell_angle_beta   111.84847131
_cell_angle_gamma   89.83824978
_symmetry_Int_Tables_number   1
_chemical_formula_structural   Fe2PO5
_chemical_formula_sum   'Fe4 P2 O10'
_cell_volume   185.52092451
_cell_formula_units_Z   2
loop_
 _symmetry_equiv_pos_site_id
 _symmetry_equiv_pos_as_xyz
  1  'x, y, z'
loop_
 _atom_site_type_symbol
 _atom_site_label
 _atom_site_symmetry_multiplicity
 _atom_site_fract_x
 _atom_site_fract_y
 _atom_site_fract_z
 _atom_site_occupancy
  Fe  Fe0  1  0.50027000  0.99991600  0.50007100  1
  Fe  Fe1  1  0.99977900  0.00005900  0.49991500  1
  Fe  Fe2  1  0.49982600  0.00004600  0.99989300  1
  Fe  Fe3  1  0.50011000  0.49979500  0.00013300  1
  P  P4  1  0.87716500  0.37719500  0.75000200  1
  P  P5  1  0.12274900  0.62280800  0.24999000  1
  O  O6  1  0.64202700  0.14203600  0.24998600  1
  O  O7  1  0.35812800  0.85809200  0.74997900  1
  O  O8  1  0.82343700  0.19211000  0.62776200  1
  O  O9  1  0.69213100  0.32334900  0.87226100  1
  O  O10  1  0.18026300  0.31133000  0.89712800  1
  O  O11  1  0.17672500  0.80780300  0.37230600  1
  O  O12  1  0.81129700  0.68030200  0.60289600  1
  O  O13  1  0.81959700  0.68879000  0.10286200  1
  O  O14  1  0.30776600  0.67669100  0.12768500  1
  O  O15  1  0.18873200  0.31967700  0.39713300  1
