# generated using pymatgen
data_NaTa4O8
_symmetry_space_group_name_H-M   'P 1'
_cell_length_a   7.17407100
_cell_length_b   10.38743800
_cell_length_c   13.06964400
_cell_angle_alpha   90.00000000
_cell_angle_beta   90.00000000
_cell_angle_gamma   90.00000000
_symmetry_Int_Tables_number   1
_chemical_formula_structural   NaTa4O8
_chemical_formula_sum   'Na6 Ta24 O48'
_cell_volume   973.95271640
_cell_formula_units_Z   6
loop_
 _symmetry_equiv_pos_site_id
 _symmetry_equiv_pos_as_xyz
  1  'x, y, z'
loop_
 _atom_site_type_symbol
 _atom_site_label
 _atom_site_symmetry_multiplicity
 _atom_site_fract_x
 _atom_site_fract_y
 _atom_site_fract_z
 _atom_site_occupancy
  Na  Na0  1  0.00000000  0.50000000  0.50692400  1
  Na  Na1  1  0.00000000  0.50000000  0.74012400  1
  Na  Na2  1  0.50000000  0.00000000  0.97477600  1
  Na  Na3  1  0.00000000  0.50000000  0.02522400  1
  Na  Na4  1  0.50000000  0.00000000  0.25987600  1
  Na  Na5  1  0.50000000  0.00000000  0.49307600  1
  Ta  Ta6  1  0.00000000  0.00000000  0.72827300  1
  Ta  Ta7  1  0.00000000  0.00000000  0.02364700  1
  Ta  Ta8  1  0.00000000  0.00000000  0.22609300  1
  Ta  Ta9  1  0.50000000  0.50000000  0.27172700  1
  Ta  Ta10  1  0.26778400  0.71728300  0.37394900  1
  Ta  Ta11  1  0.26778400  0.28271700  0.37394900  1
  Ta  Ta12  1  0.50000000  0.50000000  0.47612900  1
  Ta  Ta13  1  0.00000000  0.00000000  0.52387100  1
  Ta  Ta14  1  0.23221600  0.78271700  0.62605100  1
  Ta  Ta15  1  0.76778400  0.78271700  0.62605100  1
  Ta  Ta16  1  0.50000000  0.50000000  0.77390700  1
  Ta  Ta17  1  0.26940700  0.71910200  0.87463300  1
  Ta  Ta18  1  0.26940700  0.28089800  0.87463300  1
  Ta  Ta19  1  0.50000000  0.50000000  0.97635300  1
  Ta  Ta20  1  0.23059300  0.21910200  0.12536700  1
  Ta  Ta21  1  0.76940700  0.21910200  0.12536700  1
  Ta  Ta22  1  0.76940700  0.78089800  0.12536700  1
  Ta  Ta23  1  0.23059300  0.78089800  0.12536700  1
  Ta  Ta24  1  0.73221600  0.71728300  0.37394900  1
  Ta  Ta25  1  0.73221600  0.28271700  0.37394900  1
  Ta  Ta26  1  0.23221600  0.21728300  0.62605100  1
  Ta  Ta27  1  0.76778400  0.21728300  0.62605100  1
  Ta  Ta28  1  0.73059300  0.71910200  0.87463300  1
  Ta  Ta29  1  0.73059300  0.28089800  0.87463300  1
  O  O30  1  0.30793700  0.36423300  0.01351900  1
  O  O31  1  0.00000000  0.31962400  0.12448800  1
  O  O32  1  0.31197100  0.36176700  0.23611100  1
  O  O33  1  0.00000000  0.32719900  0.37778300  1
  O  O34  1  0.30796700  0.63530800  0.51252400  1
  O  O35  1  0.30796700  0.36469200  0.51252400  1
  O  O36  1  0.50000000  0.82719900  0.62221700  1
  O  O37  1  0.00000000  0.32192500  0.62402200  1
  O  O38  1  0.30729400  0.63509200  0.73621600  1
  O  O39  1  0.18802900  0.13823300  0.76388900  1
  O  O40  1  0.81197100  0.13823300  0.76388900  1
  O  O41  1  0.30729400  0.36490800  0.73621600  1
  O  O42  1  0.81197100  0.86176700  0.76388900  1
  O  O43  1  0.18802900  0.86176700  0.76388900  1
  O  O44  1  0.50000000  0.18037600  0.87551200  1
  O  O45  1  0.50000000  0.81962400  0.87551200  1
  O  O46  1  0.00000000  0.33371800  0.87620500  1
  O  O47  1  0.80793700  0.13576700  0.98648100  1
  O  O48  1  0.19206300  0.13576700  0.98648100  1
  O  O49  1  0.19206300  0.86423300  0.98648100  1
  O  O50  1  0.80793700  0.86423300  0.98648100  1
  O  O51  1  0.69206300  0.36423300  0.01351900  1
  O  O52  1  0.30793700  0.63576700  0.01351900  1
  O  O53  1  0.50000000  0.16628200  0.12379500  1
  O  O54  1  0.50000000  0.83371800  0.12379500  1
  O  O55  1  0.68802900  0.36176700  0.23611100  1
  O  O56  1  0.31197100  0.63823300  0.23611100  1
  O  O57  1  0.80729400  0.13509200  0.26378400  1
  O  O58  1  0.19270600  0.13509200  0.26378400  1
  O  O59  1  0.19270600  0.86490800  0.26378400  1
  O  O60  1  0.80729400  0.86490800  0.26378400  1
  O  O61  1  0.00000000  0.67280100  0.37778300  1
  O  O62  1  0.50000000  0.17807500  0.37597800  1
  O  O63  1  0.50000000  0.82192500  0.37597800  1
  O  O64  1  0.80796700  0.13530800  0.48747600  1
  O  O65  1  0.19203300  0.13530800  0.48747600  1
  O  O66  1  0.69203300  0.63530800  0.51252400  1
  O  O67  1  0.19203300  0.86469200  0.48747600  1
  O  O68  1  0.80796700  0.86469200  0.48747600  1
  O  O69  1  0.69203300  0.36469200  0.51252400  1
  O  O70  1  0.00000000  0.67807500  0.62402200  1
  O  O71  1  0.50000000  0.17280100  0.62221700  1
  O  O72  1  0.69270600  0.63509200  0.73621600  1
  O  O73  1  0.69270600  0.36490800  0.73621600  1
  O  O74  1  0.00000000  0.66628200  0.87620500  1
  O  O75  1  0.69206300  0.63576700  0.01351900  1
  O  O76  1  0.00000000  0.68037600  0.12448800  1
  O  O77  1  0.68802900  0.63823300  0.23611100  1
