# generated using pymatgen
data_K2Mo2H8O15
_symmetry_space_group_name_H-M   'P 1'
_cell_length_a   6.43289100
_cell_length_b   9.88203645
_cell_length_c   11.42819186
_cell_angle_alpha   77.59563126
_cell_angle_beta   79.81770333
_cell_angle_gamma   73.59413475
_symmetry_Int_Tables_number   1
_chemical_formula_structural   K2Mo2H8O15
_chemical_formula_sum   'K4 Mo4 H16 O30'
_cell_volume   675.39589260
_cell_formula_units_Z   2
loop_
 _symmetry_equiv_pos_site_id
 _symmetry_equiv_pos_as_xyz
  1  'x, y, z'
loop_
 _atom_site_type_symbol
 _atom_site_label
 _atom_site_symmetry_multiplicity
 _atom_site_fract_x
 _atom_site_fract_y
 _atom_site_fract_z
 _atom_site_occupancy
  K  K0  1  0.21983700  0.62228700  0.36574200  1
  K  K1  1  0.25016100  0.73406100  0.00627000  1
  K  K2  1  0.78016300  0.37771300  0.63425800  1
  K  K3  1  0.74983900  0.26593900  0.99373000  1
  Mo  Mo4  1  0.80843900  0.89359000  0.79066000  1
  Mo  Mo5  1  0.85086800  0.47028500  0.22986400  1
  Mo  Mo6  1  0.19156100  0.10641000  0.20934000  1
  Mo  Mo7  1  0.14913200  0.52971500  0.77013600  1
  H  H8  1  0.67808000  0.11312100  0.55881200  1
  H  H9  1  0.49499000  0.68567700  0.72789700  1
  H  H10  1  0.15588400  0.12183000  0.52260800  1
  H  H11  1  0.57218000  0.30189000  0.40266400  1
  H  H12  1  0.84411600  0.87817000  0.47739200  1
  H  H13  1  0.71251900  0.77112200  0.06835700  1
  H  H14  1  0.32192000  0.88687900  0.44118800  1
  H  H15  1  0.57251500  0.81117700  0.43212300  1
  H  H16  1  0.28748100  0.22887800  0.93164300  1
  H  H17  1  0.42748500  0.18882300  0.56787700  1
  H  H18  1  0.50501000  0.31432300  0.27210300  1
  H  H19  1  0.42782000  0.69811000  0.59733600  1
  H  H20  1  0.70636900  0.93338000  0.05656600  1
  H  H21  1  0.15613200  0.07507000  0.66464400  1
  H  H22  1  0.84386800  0.92493000  0.33535600  1
  H  H23  1  0.29363100  0.06662000  0.94343400  1
  O  O24  1  0.66231700  0.52243200  0.09821600  1
  O  O25  1  0.57530300  0.20767800  0.54259300  1
  O  O26  1  0.05562800  0.62019100  0.60935400  1
  O  O27  1  0.17507500  0.15186500  0.59576600  1
  O  O28  1  0.20070700  0.47424800  0.60910600  1
  O  O29  1  0.82492500  0.84813500  0.40423400  1
  O  O30  1  0.48483600  0.93691000  0.82428100  1
  O  O31  1  0.45184300  0.63173200  0.67689500  1
  O  O32  1  0.83706700  0.92778800  0.63350700  1
  O  O33  1  0.79428400  0.08471200  0.82544300  1
  O  O34  1  0.20571600  0.91528800  0.17455700  1
  O  O35  1  0.33768300  0.47756800  0.90178400  1
  O  O36  1  0.06348200  0.54915900  0.16675900  1
  O  O37  1  0.51516400  0.06309000  0.17571900  1
  O  O38  1  0.03256800  0.71664300  0.82228800  1
  O  O39  1  0.77287200  0.84964900  0.01704900  1
  O  O40  1  0.54815700  0.36826800  0.32310500  1
  O  O41  1  0.02025800  0.99313100  0.82059800  1
  O  O42  1  0.59999000  0.63539700  0.17333400  1
  O  O43  1  0.97974200  0.00686900  0.17940200  1
  O  O44  1  0.42469700  0.79232200  0.45740700  1
  O  O45  1  0.96743200  0.28335700  0.17771200  1
  O  O46  1  0.94437200  0.37980900  0.39064600  1
  O  O47  1  0.40001000  0.36460300  0.82666600  1
  O  O48  1  0.16293300  0.07221200  0.36649300  1
  O  O49  1  0.58256500  0.78117200  0.83044300  1
  O  O50  1  0.93651800  0.45084100  0.83324100  1
  O  O51  1  0.79929300  0.52575200  0.39089400  1
  O  O52  1  0.41743500  0.21882800  0.16955700  1
  O  O53  1  0.22712800  0.15035100  0.98295100  1
