# generated using pymatgen
data_Zn49Pt29
_symmetry_space_group_name_H-M   'P 1'
_cell_length_a   2.80596711
_cell_length_b   7.05316961
_cell_length_c   60.12659840
_cell_angle_alpha   93.36247950
_cell_angle_beta   90.00000000
_cell_angle_gamma   90.00000000
_symmetry_Int_Tables_number   1
_chemical_formula_structural   Zn49Pt29
_chemical_formula_sum   'Zn49 Pt29'
_cell_volume   1187.91464101
_cell_formula_units_Z   1
loop_
 _symmetry_equiv_pos_site_id
 _symmetry_equiv_pos_as_xyz
  1  'x, y, z'
loop_
 _atom_site_type_symbol
 _atom_site_label
 _atom_site_symmetry_multiplicity
 _atom_site_fract_x
 _atom_site_fract_y
 _atom_site_fract_z
 _atom_site_occupancy
  Zn  Zn0  1  0.00000000  0.70565127  0.13741522  1
  Zn  Zn1  1  0.00000000  0.45510131  0.32622464  1
  Zn  Zn2  1  0.00000000  0.56823605  0.86258478  1
  Zn  Zn3  1  0.00000000  0.27155331  0.24086075  1
  Zn  Zn4  1  0.00000000  0.48398940  0.28008687  1
  Zn  Zn5  1  0.00000000  0.25561698  0.16952809  1
  Zn  Zn6  1  0.00000000  0.67887312  0.06748379  1
  Zn  Zn7  1  0.00000000  0.71240694  0.82193448  1
  Zn  Zn8  1  0.00000000  0.94480639  0.55153832  1
  Zn  Zn9  1  0.00000000  0.49516207  0.65506762  1
  Zn  Zn10  1  0.00000000  0.61138933  0.93251621  1
  Zn  Zn11  1  0.00000000  0.19817656  0.87445803  1
  Zn  Zn12  1  0.00000000  0.88606415  0.22607203  1
  Zn  Zn13  1  0.00000000  0.08608890  0.83047191  1
  Zn  Zn14  1  0.00000000  0.93156409  0.10295209  1
  Zn  Zn15  1  0.00000000  0.57727233  0.57520130  1
  Zn  Zn16  1  0.00000000  0.62237904  0.41395326  1
  Zn  Zn17  1  0.00000000  0.32371853  0.12554197  1
  Zn  Zn18  1  0.00000000  0.37711755  0.00000000  1
  Zn  Zn19  1  0.00000000  0.39326807  0.44846168  1
  Zn  Zn20  1  0.00000000  0.06740337  0.31032935  1
  Zn  Zn21  1  0.00000000  0.03069256  0.75913925  1
  Zn  Zn22  1  0.00000000  0.08001735  0.38143889  1
  Zn  Zn23  1  0.00000000  0.20390253  0.71991313  1
  Zn  Zn24  1  0.00000000  0.12887667  0.67377536  1
  Zn  Zn25  1  0.00000000  0.82861200  0.89704791  1
  Zn  Zn26  1  0.00000000  0.84009445  0.34493238  1
  Zn  Zn27  1  0.00000000  0.20842578  0.58604674  1
  Zn  Zn28  1  0.00000000  0.54551961  0.52574524  1
  Zn  Zn29  1  0.00000000  0.69857845  0.61856111  1
  Zn  Zn30  1  0.00000000  0.31153518  0.07641161  1
  Zn  Zn31  1  0.00000000  0.00207103  0.42479870  1
  Zn  Zn32  1  0.00000000  0.84816512  0.27170110  1
  Zn  Zn33  1  0.00000000  0.44505868  0.37338086  1
  Zn  Zn34  1  0.00000000  0.57646402  0.72829890  1
  Zn  Zn35  1  0.00000000  0.01977436  0.47425476  1
  Zn  Zn36  1  0.00000000  0.11721948  0.96538448  1
  Zn  Zn37  1  0.00000000  0.65999212  0.77392797  1
  Zn  Zn38  1  0.00000000  0.75707402  0.68967065  1
  Zn  Zn39  1  0.00000000  0.28983639  0.79347466  1
  Zn  Zn40  1  0.00000000  0.89047245  0.17806552  1
  Zn  Zn41  1  0.00000000  0.65138007  0.48342930  1
  Zn  Zn42  1  0.00000000  0.74785213  0.97523155  1
  Zn  Zn43  1  0.00000000  0.07167782  0.62661914  1
  Zn  Zn44  1  0.00000000  0.15183500  0.03461552  1
  Zn  Zn45  1  0.00000000  0.49636173  0.20652534  1
  Zn  Zn46  1  0.00000000  0.77262058  0.02476845  1
  Zn  Zn47  1  0.00000000  0.23512357  0.92358839  1
  Zn  Zn48  1  0.00000000  0.16795078  0.51657070  1
  Pt  Pt49  1  0.50000000  0.89091618  0.72457885  1
  Pt  Pt50  1  0.50000000  0.88266611  0.58850643  1
  Pt  Pt51  1  0.50000000  0.93237328  0.79492130  1
  Pt  Pt52  1  0.50000000  0.33118183  0.48520737  1
  Pt  Pt53  1  0.50000000  0.43897369  0.96322730  1
  Pt  Pt54  1  0.50000000  0.93171242  0.93351555  1
  Pt  Pt55  1  0.50000000  0.16633734  0.27542115  1
  Pt  Pt56  1  0.50000000  0.19808930  0.34612494  1
  Pt  Pt57  1  0.50000000  0.36946422  0.75680683  1
  Pt  Pt58  1  0.50000000  0.41507249  0.69173912  1
  Pt  Pt59  1  0.50000000  0.13745198  0.20507870  1
  Pt  Pt60  1  0.50000000  0.47574639  0.03677270  1
  Pt  Pt61  1  0.50000000  0.00165575  0.00000000  1
  Pt  Pt62  1  0.50000000  0.61265740  0.24319317  1
  Pt  Pt63  1  0.50000000  0.72333337  0.30826088  1
  Pt  Pt64  1  0.50000000  0.31953993  0.55125302  1
  Pt  Pt65  1  0.50000000  0.76828692  0.44874698  1
  Pt  Pt66  1  0.50000000  0.84597445  0.51479263  1
  Pt  Pt67  1  0.50000000  0.40350449  0.82936930  1
  Pt  Pt68  1  0.50000000  0.57413519  0.17063070  1
  Pt  Pt69  1  0.50000000  0.89639808  0.86017302  1
  Pt  Pt70  1  0.50000000  0.45956274  0.89764776  1
  Pt  Pt71  1  0.50000000  0.99819687  0.06648445  1
  Pt  Pt72  1  0.50000000  0.76177649  0.38107018  1
  Pt  Pt73  1  0.50000000  0.38070630  0.61892982  1
  Pt  Pt74  1  0.50000000  0.29415968  0.41149357  1
  Pt  Pt75  1  0.50000000  0.56191498  0.10235224  1
  Pt  Pt76  1  0.50000000  0.03622506  0.13982698  1
  Pt  Pt77  1  0.50000000  0.85196436  0.65387506  1
