# generated using pymatgen
data_Ba3NiIr2O9
_symmetry_space_group_name_H-M   'P 1'
_cell_length_a   5.82484511
_cell_length_b   5.82432041
_cell_length_c   14.35731744
_cell_angle_alpha   89.97326224
_cell_angle_beta   89.97867766
_cell_angle_gamma   59.99128748
_symmetry_Int_Tables_number   1
_chemical_formula_structural   Ba3NiIr2O9
_chemical_formula_sum   'Ba6 Ni2 Ir4 O18'
_cell_volume   421.78913317
_cell_formula_units_Z   2
loop_
 _symmetry_equiv_pos_site_id
 _symmetry_equiv_pos_as_xyz
  1  'x, y, z'
loop_
 _atom_site_type_symbol
 _atom_site_label
 _atom_site_symmetry_multiplicity
 _atom_site_fract_x
 _atom_site_fract_y
 _atom_site_fract_z
 _atom_site_occupancy
  Ba  Ba0  1  0.00000100  0.99997800  0.24986900  1
  Ba  Ba1  1  0.00000700  0.00006600  0.74995000  1
  Ba  Ba2  1  0.66666000  0.66666100  0.91661400  1
  Ba  Ba3  1  0.33332600  0.33333800  0.41652900  1
  Ba  Ba4  1  0.33333200  0.33333700  0.08346700  1
  Ba  Ba5  1  0.66668000  0.66665800  0.58362300  1
  Ni  Ni6  1  0.00000100  0.00000900  0.50003800  1
  Ni  Ni7  1  0.00000300  0.00000300  0.00002700  1
  Ir  Ir8  1  0.66664900  0.66667600  0.15985200  1
  Ir  Ir9  1  0.33334500  0.33334000  0.65970200  1
  Ir  Ir10  1  0.33334900  0.33331500  0.84002600  1
  Ir  Ir11  1  0.66666700  0.66671900  0.34034000  1
  O  O12  1  0.51055200  0.97883300  0.24991800  1
  O  O13  1  0.02065800  0.48967900  0.75013000  1
  O  O14  1  0.48967100  0.48970800  0.75009900  1
  O  O15  1  0.51066400  0.51057600  0.24988000  1
  O  O16  1  0.97880000  0.51052400  0.24991200  1
  O  O17  1  0.48965500  0.02066600  0.75015500  1
  O  O18  1  0.82790600  0.34413800  0.41726900  1
  O  O19  1  0.65590500  0.17207300  0.91718300  1
  O  O20  1  0.17198800  0.17202400  0.91720600  1
  O  O21  1  0.82798700  0.82792700  0.41732700  1
  O  O22  1  0.34411700  0.82789000  0.41728400  1
  O  O23  1  0.17188900  0.65612100  0.58275100  1
  O  O24  1  0.65603800  0.17191200  0.58272900  1
  O  O25  1  0.17208800  0.65582700  0.91716300  1
  O  O26  1  0.17206900  0.17203600  0.58268600  1
  O  O27  1  0.82790700  0.82786900  0.08276800  1
  O  O28  1  0.82789700  0.34420900  0.08275400  1
  O  O29  1  0.34418700  0.82788500  0.08275100  1
