# generated using pymatgen
data_Cs5Bi(MoO4)4
_symmetry_space_group_name_H-M   'P 1'
_cell_length_a   8.51353836
_cell_length_b   10.70632670
_cell_length_c   13.75972163
_cell_angle_alpha   83.81426830
_cell_angle_beta   71.87054648
_cell_angle_gamma   69.85760266
_symmetry_Int_Tables_number   1
_chemical_formula_structural   Cs5Bi(MoO4)4
_chemical_formula_sum   'Cs10 Bi2 Mo8 O32'
_cell_volume   1119.02002235
_cell_formula_units_Z   2
loop_
 _symmetry_equiv_pos_site_id
 _symmetry_equiv_pos_as_xyz
  1  'x, y, z'
loop_
 _atom_site_type_symbol
 _atom_site_label
 _atom_site_symmetry_multiplicity
 _atom_site_fract_x
 _atom_site_fract_y
 _atom_site_fract_z
 _atom_site_occupancy
  Cs  Cs0  1  0.43590510  0.54729454  0.37410402  1
  Cs  Cs1  1  0.83125343  0.43989668  0.11682157  1
  Cs  Cs2  1  0.17337295  0.55077080  0.87962198  1
  Cs  Cs3  1  0.19627053  0.94689315  0.37759924  1
  Cs  Cs4  1  0.05380484  0.04925644  0.12112802  1
  Cs  Cs5  1  0.56516838  0.74718955  0.87536207  1
  Cs  Cs6  1  0.94949568  0.94172962  0.88218875  1
  Cs  Cs7  1  0.80687910  0.04811940  0.62572511  1
  Cs  Cs8  1  0.43870765  0.24727956  0.12620520  1
  Cs  Cs9  1  0.57395397  0.44722078  0.62365629  1
  Bi  Bi10  1  0.80931233  0.74787075  0.38759266  1
  Bi  Bi11  1  0.19721454  0.24642228  0.61324685  1
  Mo  Mo12  1  0.35084637  0.14241806  0.85737432  1
  Mo  Mo13  1  0.40383844  0.85962389  0.62151317  1
  Mo  Mo14  1  0.02707760  0.36090323  0.37876884  1
  Mo  Mo15  1  0.20553675  0.64186500  0.14307341  1
  Mo  Mo16  1  0.98244503  0.63362989  0.62112597  1
  Mo  Mo17  1  0.60356472  0.13402045  0.37890206  1
  Mo  Mo18  1  0.79555828  0.35038794  0.85605249  1
  Mo  Mo19  1  0.65163203  0.85017924  0.14516159  1
  O  O20  1  0.13725686  0.51237225  0.11898647  1
  O  O21  1  0.79856499  0.24080924  0.96306856  1
  O  O22  1  0.57588046  0.89896019  0.64214884  1
  O  O23  1  0.22169807  0.39880209  0.35422466  1
  O  O24  1  0.48886441  0.77029620  0.50051226  1
  O  O25  1  0.05754841  0.73350418  0.26373806  1
  O  O26  1  0.99220249  0.27389256  0.50115694  1
  O  O27  1  0.43578194  0.09071142  0.35650500  1
  O  O28  1  0.67302654  0.24128100  0.27942236  1
  O  O29  1  0.84224560  0.51763063  0.38532144  1
  O  O30  1  0.22473440  0.01587139  0.61504734  1
  O  O31  1  0.86111378  0.48120686  0.88076163  1
  O  O32  1  0.42306101  0.56981126  0.15228316  1
  O  O33  1  0.25852787  0.01269009  0.88255625  1
  O  O34  1  0.42441953  0.91945948  0.15451714  1
  O  O35  1  0.20371658  0.75144827  0.03600556  1
  O  O36  1  0.79001113  0.59273158  0.64538950  1
  O  O37  1  0.24062821  0.25338542  0.96345007  1
  O  O38  1  0.76256501  0.73972122  0.03877077  1
  O  O39  1  0.67867133  0.76080133  0.26641702  1
  O  O40  1  0.95593762  0.74013699  0.71996046  1
  O  O41  1  0.57805844  0.42000671  0.84632586  1
  O  O42  1  0.74208473  0.98101593  0.12003410  1
  O  O43  1  0.33154365  0.75513393  0.72233650  1
  O  O44  1  0.32526674  0.23169374  0.73582885  1
  O  O45  1  0.57772341  0.07073953  0.84840315  1
  O  O46  1  0.16872985  0.47833389  0.61515630  1
  O  O47  1  0.01641136  0.72064402  0.49856594  1
  O  O48  1  0.78604925  0.98002286  0.38399117  1
  O  O49  1  0.05134355  0.25476720  0.28039344  1
  O  O50  1  0.94539250  0.25995507  0.73543298  1
  O  O51  1  0.51536457  0.22113821  0.50124760  1
