# generated using pymatgen
data_K2Ag4Pt3(NO2)12
_symmetry_space_group_name_H-M   'P 1'
_cell_length_a   24.14078600
_cell_length_b   7.28633200
_cell_length_c   9.82806589
_cell_angle_alpha   52.08303077
_cell_angle_beta   90.00000000
_cell_angle_gamma   90.00000000
_symmetry_Int_Tables_number   1
_chemical_formula_structural   K2Ag4Pt3(NO2)12
_chemical_formula_sum   'K4 Ag8 Pt6 N24 O48'
_cell_volume   1363.80269321
_cell_formula_units_Z   2
loop_
 _symmetry_equiv_pos_site_id
 _symmetry_equiv_pos_as_xyz
  1  'x, y, z'
loop_
 _atom_site_type_symbol
 _atom_site_label
 _atom_site_symmetry_multiplicity
 _atom_site_fract_x
 _atom_site_fract_y
 _atom_site_fract_z
 _atom_site_occupancy
  K  K0  1  0.63403800  0.66880300  0.93577000  1
  K  K1  1  0.86596200  0.66880300  0.43577000  1
  K  K2  1  0.36596200  0.33119700  0.06423000  1
  K  K3  1  0.13403800  0.33119700  0.56423000  1
  Ag  Ag4  1  0.52616100  0.23405000  0.39399200  1
  Ag  Ag5  1  0.81736300  0.42664800  0.18376100  1
  Ag  Ag6  1  0.47383900  0.76595000  0.60600800  1
  Ag  Ag7  1  0.31736300  0.57335200  0.31623900  1
  Ag  Ag8  1  0.68263700  0.42664800  0.68376100  1
  Ag  Ag9  1  0.18263700  0.57335200  0.81623900  1
  Ag  Ag10  1  0.02616100  0.76595000  0.10600800  1
  Ag  Ag11  1  0.97383900  0.23405000  0.89399200  1
  Pt  Pt12  1  0.32397900  0.17811400  0.70706400  1
  Pt  Pt13  1  0.00000000  0.00000000  0.50000000  1
  Pt  Pt14  1  0.82397900  0.82188600  0.79293600  1
  Pt  Pt15  1  0.67602100  0.82188600  0.29293600  1
  Pt  Pt16  1  0.50000000  0.00000000  0.00000000  1
  Pt  Pt17  1  0.17602100  0.17811400  0.20706400  1
  N  N18  1  0.26650000  0.92766700  0.77898100  1
  N  N19  1  0.76650000  0.07233300  0.72101900  1
  N  N20  1  0.37730400  0.02294000  0.64231600  1
  N  N21  1  0.27048300  0.33282900  0.76853700  1
  N  N22  1  0.22951700  0.33282900  0.26853700  1
  N  N23  1  0.38294800  0.42386900  0.64431000  1
  N  N24  1  0.56802000  0.21320900  0.90402700  1
  N  N25  1  0.11705200  0.42386900  0.14431000  1
  N  N26  1  0.06802000  0.78679100  0.59597300  1
  N  N27  1  0.93198000  0.21320900  0.40402700  1
  N  N28  1  0.62269600  0.97706000  0.35768400  1
  N  N29  1  0.00522500  0.98859500  0.71335300  1
  N  N30  1  0.73350000  0.07233300  0.22101900  1
  N  N31  1  0.61705200  0.57613100  0.35569000  1
  N  N32  1  0.50522500  0.01140500  0.78664700  1
  N  N33  1  0.12269600  0.02294000  0.14231600  1
  N  N34  1  0.49477500  0.98859500  0.21335300  1
  N  N35  1  0.43198000  0.78679100  0.09597300  1
  N  N36  1  0.87730400  0.97706000  0.85768400  1
  N  N37  1  0.23350000  0.92766700  0.27898100  1
  N  N38  1  0.72951700  0.66717100  0.23146300  1
  N  N39  1  0.88294800  0.57613100  0.85569000  1
  N  N40  1  0.99477500  0.01140500  0.28664700  1
  N  N41  1  0.77048300  0.66717100  0.73146300  1
  O  O42  1  0.02223900  0.16265100  0.69857300  1
  O  O43  1  0.41073400  0.40979100  0.75777900  1
  O  O44  1  0.60979200  0.40705400  0.51118500  1
  O  O45  1  0.89020800  0.40705400  0.01118500  1
  O  O46  1  0.08926600  0.40979100  0.25777900  1
  O  O47  1  0.22775600  0.73424600  0.42157400  1
  O  O48  1  0.39020800  0.59294600  0.48881500  1
  O  O49  1  0.49230900  0.19453600  0.64152700  1
  O  O50  1  0.00769100  0.19453600  0.14152700  1
  O  O51  1  0.93518100  0.41661000  0.35349200  1
  O  O52  1  0.89754500  0.17255500  0.74020600  1
  O  O53  1  0.97776100  0.83734900  0.30142700  1
  O  O54  1  0.28089400  0.29952500  0.27398400  1
  O  O55  1  0.28808500  0.46659600  0.79748000  1
  O  O56  1  0.78808500  0.53340400  0.70252000  1
  O  O57  1  0.27224400  0.73424600  0.92157400  1
  O  O58  1  0.43518100  0.58339000  0.14650800  1
  O  O59  1  0.58926600  0.59020900  0.24222100  1
  O  O60  1  0.71910600  0.70047500  0.72601600  1
  O  O61  1  0.10979200  0.59294600  0.98881500  1
  O  O62  1  0.52223900  0.83734900  0.80142700  1
  O  O63  1  0.60245500  0.17255500  0.24020600  1
  O  O64  1  0.38721300  0.86563300  0.10679900  1
  O  O65  1  0.56481900  0.41661000  0.85349200  1
  O  O66  1  0.78089400  0.70047500  0.22601600  1
  O  O67  1  0.27360400  0.96763100  0.18311200  1
  O  O68  1  0.21910600  0.29952500  0.77398400  1
  O  O69  1  0.89060200  0.87569000  0.01072200  1
  O  O70  1  0.39754500  0.82744500  0.75979400  1
  O  O71  1  0.91073400  0.59020900  0.74222100  1
  O  O72  1  0.10245500  0.82744500  0.25979400  1
  O  O73  1  0.21191500  0.46659600  0.29748000  1
  O  O74  1  0.99230900  0.80546400  0.85847300  1
  O  O75  1  0.10939800  0.12431000  0.98927800  1
  O  O76  1  0.77360400  0.03236900  0.31688800  1
  O  O77  1  0.22639600  0.96763100  0.68311200  1
  O  O78  1  0.06481900  0.58339000  0.64650800  1
  O  O79  1  0.88721300  0.13436700  0.39320100  1
  O  O80  1  0.39060200  0.12431000  0.48927800  1
  O  O81  1  0.61278700  0.13436700  0.89320100  1
  O  O82  1  0.77224400  0.26575400  0.57842600  1
  O  O83  1  0.11278700  0.86563300  0.60679900  1
  O  O84  1  0.71191500  0.53340400  0.20252000  1
  O  O85  1  0.47776100  0.16265100  0.19857300  1
  O  O86  1  0.72775600  0.26575400  0.07842600  1
  O  O87  1  0.50769100  0.80546400  0.35847300  1
  O  O88  1  0.72639600  0.03236900  0.81688800  1
  O  O89  1  0.60939800  0.87569000  0.51072200  1
