# generated using pymatgen
data_Co6Te5O16
_symmetry_space_group_name_H-M   'P 1'
_cell_length_a   10.42252300
_cell_length_b   11.24260600
_cell_length_c   13.03074300
_cell_angle_alpha   90.00000000
_cell_angle_beta   90.00000000
_cell_angle_gamma   90.00000000
_symmetry_Int_Tables_number   1
_chemical_formula_structural   Co6Te5O16
_chemical_formula_sum   'Co24 Te20 O64'
_cell_volume   1526.89450659
_cell_formula_units_Z   4
loop_
 _symmetry_equiv_pos_site_id
 _symmetry_equiv_pos_as_xyz
  1  'x, y, z'
loop_
 _atom_site_type_symbol
 _atom_site_label
 _atom_site_symmetry_multiplicity
 _atom_site_fract_x
 _atom_site_fract_y
 _atom_site_fract_z
 _atom_site_occupancy
  Co  Co0  1  0.93328700  0.24724200  0.00626700  1
  Co  Co1  1  0.43328700  0.75275800  0.99373300  1
  Co  Co2  1  0.40972400  0.24952700  0.77012300  1
  Co  Co3  1  0.57281700  0.98524900  0.89296300  1
  Co  Co4  1  0.09027600  0.24952700  0.77012300  1
  Co  Co5  1  0.59027600  0.25047300  0.27012300  1
  Co  Co6  1  0.07281700  0.01475100  0.10703700  1
  Co  Co7  1  0.40972400  0.74952700  0.72987700  1
  Co  Co8  1  0.43328700  0.25275800  0.50626700  1
  Co  Co9  1  0.09027600  0.74952700  0.72987700  1
  Co  Co10  1  0.93328700  0.74724200  0.49373300  1
  Co  Co11  1  0.07281700  0.51475100  0.39296300  1
  Co  Co12  1  0.56671300  0.74724200  0.49373300  1
  Co  Co13  1  0.06671300  0.25275800  0.50626700  1
  Co  Co14  1  0.92718300  0.48524900  0.60703700  1
  Co  Co15  1  0.42718300  0.01475100  0.10703700  1
  Co  Co16  1  0.06671300  0.75275800  0.99373300  1
  Co  Co17  1  0.90972400  0.75047300  0.22987700  1
  Co  Co18  1  0.57281700  0.48524900  0.60703700  1
  Co  Co19  1  0.56671300  0.24724200  0.00626700  1
  Co  Co20  1  0.59027600  0.75047300  0.22987700  1
  Co  Co21  1  0.90972400  0.25047300  0.27012300  1
  Co  Co22  1  0.42718300  0.51475100  0.39296300  1
  Co  Co23  1  0.92718300  0.98524900  0.89296300  1
  Te  Te24  1  0.75000000  0.22174000  0.50649400  1
  Te  Te25  1  0.75000000  0.53443900  0.36154900  1
  Te  Te26  1  0.03789000  0.99003200  0.36527400  1
  Te  Te27  1  0.25000000  0.77826000  0.49350600  1
  Te  Te28  1  0.53789000  0.00996800  0.63472600  1
  Te  Te29  1  0.46211000  0.99003200  0.36527400  1
  Te  Te30  1  0.03789000  0.49003200  0.13472600  1
  Te  Te31  1  0.53789000  0.50996800  0.86527400  1
  Te  Te32  1  0.25000000  0.80033900  0.18392800  1
  Te  Te33  1  0.75000000  0.03443900  0.13845100  1
  Te  Te34  1  0.25000000  0.27826000  0.00649400  1
  Te  Te35  1  0.25000000  0.30033900  0.31607200  1
  Te  Te36  1  0.75000000  0.69966100  0.68392800  1
  Te  Te37  1  0.96211000  0.50996800  0.86527400  1
  Te  Te38  1  0.25000000  0.46556100  0.63845100  1
  Te  Te39  1  0.25000000  0.96556100  0.86154900  1
  Te  Te40  1  0.96211000  0.00996800  0.63472600  1
  Te  Te41  1  0.75000000  0.72174000  0.99350600  1
  Te  Te42  1  0.75000000  0.19966100  0.81607200  1
  Te  Te43  1  0.46211000  0.49003200  0.13472600  1
  O  O44  1  0.05606500  0.32445000  0.34991500  1
  O  O45  1  0.88854900  0.06105500  0.04185700  1
  O  O46  1  0.61057800  0.81476000  0.94339200  1
  O  O47  1  0.44393500  0.32445000  0.34991500  1
  O  O48  1  0.48176500  0.92547600  0.75589300  1
  O  O49  1  0.11145100  0.43894500  0.54185700  1
  O  O50  1  0.38942200  0.68524000  0.44339200  1
  O  O51  1  0.04597300  0.89834900  0.54590500  1
  O  O52  1  0.75000000  0.77996500  0.55289100  1
  O  O53  1  0.94393500  0.67555000  0.65008500  1
  O  O54  1  0.88854900  0.56105500  0.45814300  1
  O  O55  1  0.41937200  0.63822400  0.85855800  1
  O  O56  1  0.44393500  0.82445000  0.15008500  1
  O  O57  1  0.51823500  0.07452400  0.24410700  1
  O  O58  1  0.88942200  0.81476000  0.94339200  1
  O  O59  1  0.38854900  0.43894500  0.54185700  1
  O  O60  1  0.25000000  0.97130000  0.16625900  1
  O  O61  1  0.75000000  0.28065200  0.36809200  1
  O  O62  1  0.55606500  0.17555000  0.84991500  1
  O  O63  1  0.75000000  0.69201500  0.31378100  1
  O  O64  1  0.45402700  0.39834900  0.95409500  1
  O  O65  1  0.98176500  0.57452400  0.25589300  1
  O  O66  1  0.38942200  0.18524000  0.05660800  1
  O  O67  1  0.61145100  0.06105500  0.04185700  1
  O  O68  1  0.58062800  0.86177600  0.35855800  1
  O  O69  1  0.04597300  0.39834900  0.95409500  1
  O  O70  1  0.25000000  0.30798500  0.68621900  1
  O  O71  1  0.25000000  0.80798500  0.81378100  1
  O  O72  1  0.25000000  0.22003500  0.44710900  1
  O  O73  1  0.25000000  0.21934800  0.86809200  1
  O  O74  1  0.11145100  0.93894500  0.95814300  1
  O  O75  1  0.38854900  0.93894500  0.95814300  1
  O  O76  1  0.75000000  0.78065200  0.13190800  1
  O  O77  1  0.95402700  0.10165100  0.45409500  1
  O  O78  1  0.54597300  0.60165100  0.04590500  1
  O  O79  1  0.91937200  0.36177600  0.14144200  1
  O  O80  1  0.01823500  0.92547600  0.75589300  1
  O  O81  1  0.41937200  0.13822400  0.64144200  1
  O  O82  1  0.61145100  0.56105500  0.45814300  1
  O  O83  1  0.75000000  0.19201500  0.18621900  1
  O  O84  1  0.05606500  0.82445000  0.15008500  1
  O  O85  1  0.55606500  0.67555000  0.65008500  1
  O  O86  1  0.08062800  0.13822400  0.64144200  1
  O  O87  1  0.98176500  0.07452400  0.24410700  1
  O  O88  1  0.45402700  0.89834900  0.54590500  1
  O  O89  1  0.61057800  0.31476000  0.55660800  1
  O  O90  1  0.75000000  0.02870000  0.83374100  1
  O  O91  1  0.25000000  0.47130000  0.33374100  1
  O  O92  1  0.25000000  0.72003500  0.05289100  1
  O  O93  1  0.88942200  0.31476000  0.55660800  1
  O  O94  1  0.75000000  0.52870000  0.66625900  1
  O  O95  1  0.75000000  0.27996500  0.94710900  1
  O  O96  1  0.11057800  0.18524000  0.05660800  1
  O  O97  1  0.08062800  0.63822400  0.85855800  1
  O  O98  1  0.01823500  0.42547600  0.74410700  1
  O  O99  1  0.54597300  0.10165100  0.45409500  1
  O  O100  1  0.11057800  0.68524000  0.44339200  1
  O  O101  1  0.48176500  0.42547600  0.74410700  1
  O  O102  1  0.25000000  0.71934800  0.63190800  1
  O  O103  1  0.91937200  0.86177600  0.35855800  1
  O  O104  1  0.94393500  0.17555000  0.84991500  1
  O  O105  1  0.51823500  0.57452400  0.25589300  1
  O  O106  1  0.58062800  0.36177600  0.14144200  1
  O  O107  1  0.95402700  0.60165100  0.04590500  1
