# generated using pymatgen
data_NdH12(NO5)3
_symmetry_space_group_name_H-M   'P 1'
_cell_length_a   6.87294497
_cell_length_b   9.31516664
_cell_length_c   11.86150063
_cell_angle_alpha   69.40623904
_cell_angle_beta   88.85364087
_cell_angle_gamma   68.08842685
_symmetry_Int_Tables_number   1
_chemical_formula_structural   NdH12(NO5)3
_chemical_formula_sum   'Nd2 H24 N6 O30'
_cell_volume   654.08985832
_cell_formula_units_Z   2
loop_
 _symmetry_equiv_pos_site_id
 _symmetry_equiv_pos_as_xyz
  1  'x, y, z'
loop_
 _atom_site_type_symbol
 _atom_site_label
 _atom_site_symmetry_multiplicity
 _atom_site_fract_x
 _atom_site_fract_y
 _atom_site_fract_z
 _atom_site_occupancy
  Nd  Nd0  1  0.30348158  0.59638491  0.22495842  1
  Nd  Nd1  1  0.69651842  0.40361509  0.77504158  1
  O  O2  1  0.21461670  0.55810412  0.04090092  1
  O  O3  1  0.78538330  0.44189588  0.95909908  1
  O  O4  1  0.19747453  0.56405357  0.43002156  1
  O  O5  1  0.80252547  0.43594643  0.56997844  1
  O  O6  1  0.92190327  0.77147550  0.17649228  1
  O  O7  1  0.07809673  0.22852450  0.82350772  1
  O  O8  1  0.13208769  0.40009985  0.27891902  1
  O  O9  1  0.86791231  0.59990015  0.72108098  1
  O  O10  1  0.09290614  0.22902994  0.14129448  1
  O  O11  1  0.90709386  0.77097006  0.85870552  1
  O  O12  1  0.12330974  0.20915334  0.51068175  1
  O  O13  1  0.87669026  0.79084666  0.48931825  1
  O  O14  1  0.57011961  0.67927391  0.32877236  1
  O  O15  1  0.42988039  0.32072609  0.67122764  1
  O  O16  1  0.24719120  0.86675597  0.26983913  1
  O  O17  1  0.75280880  0.13324403  0.73016087  1
  O  O18  1  0.47465982  0.91058375  0.36720926  1
  O  O19  1  0.52534018  0.08941625  0.63279074  1
  O  O20  1  0.55777869  0.68225053  0.07026149  1
  O  O21  1  0.44222131  0.31774947  0.92973851  1
  O  O22  1  0.24277117  0.88349237  0.01905102  1
  O  O23  1  0.75722883  0.11650763  0.98094898  1
  O  O24  1  0.49640208  0.91134518  0.90931667  1
  O  O25  1  0.50359792  0.08865482  0.09068333  1
  O  O26  1  0.60309372  0.34455432  0.20327519  1
  O  O27  1  0.39690628  0.65544568  0.79672481  1
  O  O28  1  0.58550716  0.34038245  0.38807749  1
  O  O29  1  0.41449284  0.65961755  0.61192251  1
  O  O30  1  0.83952426  0.13756482  0.35193002  1
  O  O31  1  0.16047574  0.86243518  0.64806998  1
  N  N32  1  0.43067447  0.82192654  0.32313349  1
  N  N33  1  0.56932553  0.17807346  0.67686651  1
  N  N34  1  0.43255116  0.82742456  0.99780268  1
  N  N35  1  0.56744884  0.17257544  0.00219732  1
  N  N36  1  0.67989783  0.27018492  0.31571932  1
  N  N37  1  0.32010217  0.72981508  0.68428068  1
  H  H38  1  0.09888225  0.64253151  0.97365585  1
  H  H39  1  0.90111775  0.35746849  0.02634415  1
  H  H40  1  0.30138323  0.47375510  0.00934097  1
  H  H41  1  0.69861677  0.52624490  0.99065903  1
  H  H42  1  0.08005091  0.65129010  0.44937156  1
  H  H43  1  0.91994909  0.34870990  0.55062844  1
  H  H44  1  0.28060711  0.48091466  0.50754000  1
  H  H45  1  0.71939289  0.51908534  0.49246000  1
  H  H46  1  0.84846966  0.88824256  0.12189629  1
  H  H47  1  0.15153034  0.11175744  0.87810371  1
  H  H48  1  0.81512752  0.72672103  0.20695003  1
  H  H49  1  0.18487248  0.27327897  0.79304997  1
  H  H50  1  0.11959756  0.34107156  0.22549053  1
  H  H51  1  0.88040244  0.65892844  0.77450947  1
  H  H52  1  0.13226216  0.32817753  0.36413686  1
  H  H53  1  0.86773784  0.67182247  0.63586314  1
  H  H54  1  0.06569745  0.13419777  0.19732173  1
  H  H55  1  0.93430255  0.86580223  0.80267827  1
  H  H56  1  0.23410729  0.17984275  0.11721518  1
  H  H57  1  0.76589271  0.82015725  0.88278482  1
  H  H58  1  0.26300931  0.16575632  0.55926682  1
  H  H59  1  0.73699069  0.83424368  0.44073318  1
  H  H60  1  0.09530414  0.11091757  0.51790474  1
  H  H61  1  0.90469586  0.88908243  0.48209526  1
