# generated using pymatgen
data_Mn(PO3)3
_symmetry_space_group_name_H-M   'P 1'
_cell_length_a   6.63544385
_cell_length_b   9.78611156
_cell_length_c   6.67922556
_cell_angle_alpha   87.49292891
_cell_angle_beta   60.22243540
_cell_angle_gamma   90.00754123
_symmetry_Int_Tables_number   1
_chemical_formula_structural   Mn(PO3)3
_chemical_formula_sum   'Mn2 P6 O18'
_cell_volume   375.96902941
_cell_formula_units_Z   2
loop_
 _symmetry_equiv_pos_site_id
 _symmetry_equiv_pos_as_xyz
  1  'x, y, z'
loop_
 _atom_site_type_symbol
 _atom_site_label
 _atom_site_symmetry_multiplicity
 _atom_site_fract_x
 _atom_site_fract_y
 _atom_site_fract_z
 _atom_site_occupancy
  Mn  Mn0  1  0.31923700  0.00006900  0.33343300  1
  Mn  Mn1  1  0.34729900  0.50006200  0.33353300  1
  P  P2  1  0.72152600  0.74565700  0.06489500  1
  P  P3  1  0.21356700  0.24581500  0.06492100  1
  P  P4  1  0.70852500  0.24932300  0.21717300  1
  P  P5  1  0.07433600  0.74917500  0.21715400  1
  P  P6  1  0.22658200  0.75509700  0.71519000  1
  P  P7  1  0.05817900  0.25521900  0.71520400  1
  O  O8  1  0.93590900  0.24045200  0.24065800  1
  O  O9  1  0.82345800  0.74028700  0.24063700  1
  O  O10  1  0.59190100  0.87312000  0.08867900  1
  O  O11  1  0.31949000  0.37328400  0.08865500  1
  O  O12  1  0.59871600  0.60981800  0.08957800  1
  O  O13  1  0.31160400  0.10996600  0.08966000  1
  O  O14  1  0.57446400  0.11660600  0.31558200  1
  O  O15  1  0.10986700  0.61647600  0.31565300  1
  O  O16  1  0.58752400  0.37807300  0.32845900  1
  O  O17  1  0.08424000  0.87795800  0.32832200  1
  O  O18  1  0.94980700  0.74566200  0.81602200  1
  O  O19  1  0.23411300  0.24586000  0.81606100  1
  O  O20  1  0.80760800  0.26385700  0.94331900  1
  O  O21  1  0.24905700  0.76367400  0.94330000  1
  O  O22  1  0.33786100  0.62941200  0.59343800  1
  O  O23  1  0.06875700  0.12952900  0.59340100  1
  O  O24  1  0.31699000  0.89270400  0.58675400  1
  O  O25  1  0.09614800  0.39282200  0.58679000  1
