# generated using pymatgen
data_ErU2S3O2
_symmetry_space_group_name_H-M   'P 1'
_cell_length_a   10.87300310
_cell_length_b   10.87300310
_cell_length_c   10.87300310
_cell_angle_alpha   159.88800989
_cell_angle_beta   159.88800989
_cell_angle_gamma   28.59261956
_symmetry_Int_Tables_number   1
_chemical_formula_structural   ErU2S3O2
_chemical_formula_sum   'Er1 U2 S3 O2'
_cell_volume   151.91036961
_cell_formula_units_Z   1
loop_
 _symmetry_equiv_pos_site_id
 _symmetry_equiv_pos_as_xyz
  1  'x, y, z'
loop_
 _atom_site_type_symbol
 _atom_site_label
 _atom_site_symmetry_multiplicity
 _atom_site_fract_x
 _atom_site_fract_y
 _atom_site_fract_z
 _atom_site_occupancy
  Er  Er0  1  0.50000000  0.50000000  0.00000000  1
  U  U1  1  0.81383300  0.81383300  0.00000000  1
  U  U2  1  0.18616700  0.18616700  0.00000000  1
  S  S3  1  0.62796800  0.62796800  0.00000000  1
  S  S4  1  0.00000000  0.00000000  0.00000000  1
  S  S5  1  0.37203200  0.37203200  0.00000000  1
  O  O6  1  0.75000000  0.25000000  0.50000000  1
  O  O7  1  0.25000000  0.75000000  0.50000000  1
