# generated using pymatgen
data_KCrF3
_symmetry_space_group_name_H-M   'P 1'
_cell_length_a   6.05512840
_cell_length_b   6.05512840
_cell_length_c   6.05512840
_cell_angle_alpha   121.02645781
_cell_angle_beta   121.02645781
_cell_angle_gamma   88.23113133
_symmetry_Int_Tables_number   1
_chemical_formula_structural   KCrF3
_chemical_formula_sum   'K2 Cr2 F6'
_cell_volume   154.46838759
_cell_formula_units_Z   2
loop_
 _symmetry_equiv_pos_site_id
 _symmetry_equiv_pos_as_xyz
  1  'x, y, z'
loop_
 _atom_site_type_symbol
 _atom_site_label
 _atom_site_symmetry_multiplicity
 _atom_site_fract_x
 _atom_site_fract_y
 _atom_site_fract_z
 _atom_site_occupancy
  K  K0  1  0.25000000  0.75000000  0.50000000  1
  K  K1  1  0.75000000  0.25000000  0.50000000  1
  Cr  Cr2  1  0.50000000  0.50000000  0.00000000  1
  Cr  Cr3  1  0.00000000  0.00000000  0.00000000  1
  F  F4  1  0.23050500  0.23050500  0.00000000  1
  F  F5  1  0.76949500  0.76949500  0.00000000  1
  F  F6  1  0.26696200  0.75102100  0.01798400  1
  F  F7  1  0.73303800  0.24897900  0.98201600  1
  F  F8  1  0.24897900  0.26696200  0.51594100  1
  F  F9  1  0.75102100  0.73303800  0.48405900  1
