# generated using pymatgen
data_La3(GaNi2)2
_symmetry_space_group_name_H-M   'P 1'
_cell_length_a   5.53504465
_cell_length_b   5.53504465
_cell_length_c   8.33133440
_cell_angle_alpha   81.86016142
_cell_angle_beta   81.86016142
_cell_angle_gamma   44.96652601
_symmetry_Int_Tables_number   1
_chemical_formula_structural   La3(GaNi2)2
_chemical_formula_sum   'La3 Ga2 Ni4'
_cell_volume   178.24944051
_cell_formula_units_Z   1
loop_
 _symmetry_equiv_pos_site_id
 _symmetry_equiv_pos_as_xyz
  1  'x, y, z'
loop_
 _atom_site_type_symbol
 _atom_site_label
 _atom_site_symmetry_multiplicity
 _atom_site_fract_x
 _atom_site_fract_y
 _atom_site_fract_z
 _atom_site_occupancy
  La  La0  1  0.37607100  0.37607100  0.37958900  1
  La  La1  1  0.00000000  0.00000000  0.00000000  1
  La  La2  1  0.62392900  0.62392900  0.62041100  1
  Ga  Ga3  1  0.32148400  0.32148400  0.78601500  1
  Ga  Ga4  1  0.67851600  0.67851600  0.21398500  1
  Ni  Ni5  1  0.73955400  0.73955400  0.91465800  1
  Ni  Ni6  1  0.08524900  0.08524900  0.36077500  1
  Ni  Ni7  1  0.91475100  0.91475100  0.63922500  1
  Ni  Ni8  1  0.26044600  0.26044600  0.08534200  1
