# generated using pymatgen
data_Cs2CrH2Cl5O
_symmetry_space_group_name_H-M   'P 1'
_cell_length_a   8.16350907
_cell_length_b   14.41974174
_cell_length_c   9.76755792
_cell_angle_alpha   73.86882919
_cell_angle_beta   89.98958859
_cell_angle_gamma   89.98635415
_symmetry_Int_Tables_number   1
_chemical_formula_structural   Cs2CrH2Cl5O
_chemical_formula_sum   'Cs8 Cr4 H8 Cl20 O4'
_cell_volume   1104.52524802
_cell_formula_units_Z   4
loop_
 _symmetry_equiv_pos_site_id
 _symmetry_equiv_pos_as_xyz
  1  'x, y, z'
loop_
 _atom_site_type_symbol
 _atom_site_label
 _atom_site_symmetry_multiplicity
 _atom_site_fract_x
 _atom_site_fract_y
 _atom_site_fract_z
 _atom_site_occupancy
  Cs  Cs0  1  0.75001900  0.76393800  0.29145600  1
  Cs  Cs1  1  0.75001300  0.26388300  0.79142200  1
  Cs  Cs2  1  0.25000300  0.23595600  0.70875300  1
  Cs  Cs3  1  0.24999100  0.73600800  0.20864800  1
  Cs  Cs4  1  0.25000800  0.87483800  0.62586500  1
  Cs  Cs5  1  0.24999800  0.37480800  0.12595300  1
  Cs  Cs6  1  0.75001300  0.12523500  0.37405400  1
  Cs  Cs7  1  0.75000200  0.62517900  0.87413100  1
  Cr  Cr8  1  0.74996000  0.44320000  0.33010100  1
  Cr  Cr9  1  0.25020400  0.05700800  0.16990800  1
  Cr  Cr10  1  0.74995500  0.94332400  0.82944200  1
  Cr  Cr11  1  0.24989500  0.55661800  0.67038100  1
  H  H12  1  0.65195200  0.01782000  0.05300300  1
  H  H13  1  0.65188200  0.51814900  0.55317100  1
  H  H14  1  0.34801100  0.98139400  0.94740300  1
  H  H15  1  0.34805700  0.48185400  0.44724200  1
  H  H16  1  0.15197300  0.98145900  0.94748700  1
  H  H17  1  0.15194300  0.48185800  0.44719900  1
  H  H18  1  0.84801700  0.01779800  0.05299500  1
  H  H19  1  0.84795500  0.51811300  0.55310000  1
  Cl  Cl20  1  0.75005700  0.87841100  0.63470400  1
  Cl  Cl21  1  0.74991500  0.37856500  0.13521500  1
  Cl  Cl22  1  0.25016900  0.12155600  0.36490500  1
  Cl  Cl23  1  0.24997100  0.62151400  0.86515400  1
  Cl  Cl24  1  0.54044500  0.05659900  0.72506400  1
  Cl  Cl25  1  0.54024700  0.55658500  0.22580700  1
  Cl  Cl26  1  0.46016100  0.66546000  0.55297100  1
  Cl  Cl27  1  0.46029900  0.16570100  0.05280200  1
  Cl  Cl28  1  0.04041800  0.94363800  0.27408000  1
  Cl  Cl29  1  0.04026900  0.44343400  0.77457400  1
  Cl  Cl30  1  0.96016800  0.33448500  0.44723600  1
  Cl  Cl31  1  0.96037000  0.83464700  0.94689200  1
  Cl  Cl32  1  0.45981500  0.94357800  0.27409500  1
  Cl  Cl33  1  0.45968600  0.44345600  0.77456400  1
  Cl  Cl34  1  0.53972000  0.33447800  0.44721800  1
  Cl  Cl35  1  0.53968900  0.83466100  0.94688900  1
  Cl  Cl36  1  0.95957500  0.05660300  0.72509400  1
  Cl  Cl37  1  0.95961800  0.55655300  0.22584300  1
  Cl  Cl38  1  0.03973800  0.66548800  0.55297400  1
  Cl  Cl39  1  0.03993500  0.16571100  0.05281600  1
  O  O40  1  0.74995900  0.00129400  0.00650800  1
  O  O41  1  0.74989300  0.50070200  0.50759100  1
  O  O42  1  0.25004500  0.99948600  0.99230200  1
  O  O43  1  0.24998800  0.49895400  0.49298200  1
