# generated using pymatgen
data_BaV(AsO4)2
_symmetry_space_group_name_H-M   'P 1'
_cell_length_a   14.89803000
_cell_length_b   6.90667500
_cell_length_c   7.76216009
_cell_angle_alpha   64.90821467
_cell_angle_beta   90.00000000
_cell_angle_gamma   90.00000000
_symmetry_Int_Tables_number   1
_chemical_formula_structural   BaV(AsO4)2
_chemical_formula_sum   'Ba4 V4 As8 O32'
_cell_volume   723.32099828
_cell_formula_units_Z   4
loop_
 _symmetry_equiv_pos_site_id
 _symmetry_equiv_pos_as_xyz
  1  'x, y, z'
loop_
 _atom_site_type_symbol
 _atom_site_label
 _atom_site_symmetry_multiplicity
 _atom_site_fract_x
 _atom_site_fract_y
 _atom_site_fract_z
 _atom_site_occupancy
  Ba  Ba0  1  0.87740200  0.29152800  0.67546500  1
  Ba  Ba1  1  0.37740200  0.20847200  0.32453500  1
  Ba  Ba2  1  0.12259800  0.70847200  0.32453500  1
  Ba  Ba3  1  0.62259800  0.79152800  0.67546500  1
  V  V4  1  0.15017500  0.30365400  0.97699000  1
  V  V5  1  0.65017500  0.19634600  0.02301000  1
  V  V6  1  0.34982500  0.80365400  0.97699000  1
  V  V7  1  0.84982500  0.69634600  0.02301000  1
  As  As8  1  0.81855900  0.89700600  0.33179800  1
  As  As9  1  0.31855900  0.60299400  0.66820200  1
  As  As10  1  0.96457800  0.27589400  0.22086500  1
  As  As11  1  0.03542200  0.72410600  0.77913500  1
  As  As12  1  0.46457800  0.22410600  0.77913500  1
  As  As13  1  0.68144100  0.39700600  0.33179800  1
  As  As14  1  0.18144100  0.10299400  0.66820200  1
  As  As15  1  0.53542200  0.77589400  0.22086500  1
  O  O16  1  0.98845100  0.41312600  0.35069800  1
  O  O17  1  0.04590400  0.14630700  0.15313000  1
  O  O18  1  0.69676400  0.19039900  0.54330900  1
  O  O19  1  0.78315800  0.52243700  0.26176000  1
  O  O20  1  0.60764100  0.57285300  0.38572100  1
  O  O21  1  0.71684200  0.02243700  0.26176000  1
  O  O22  1  0.23199100  0.19273700  0.12900300  1
  O  O23  1  0.87819100  0.88720000  0.14370800  1
  O  O24  1  0.39235900  0.42714700  0.61427900  1
  O  O25  1  0.89235900  0.07285300  0.38572100  1
  O  O26  1  0.62180900  0.38720000  0.14370800  1
  O  O27  1  0.19676400  0.30960100  0.45669100  1
  O  O28  1  0.10764100  0.92714700  0.61427900  1
  O  O29  1  0.12180900  0.11280000  0.85629200  1
  O  O30  1  0.76800900  0.80726300  0.87099700  1
  O  O31  1  0.45409600  0.64630700  0.15313000  1
  O  O32  1  0.90212900  0.42930300  0.02116200  1
  O  O33  1  0.28315800  0.97756300  0.73824000  1
  O  O34  1  0.21684200  0.47756300  0.73824000  1
  O  O35  1  0.73199100  0.30726300  0.87099700  1
  O  O36  1  0.54590400  0.35369300  0.84687000  1
  O  O37  1  0.48845100  0.08687400  0.64930200  1
  O  O38  1  0.40212900  0.07069700  0.97883800  1
  O  O39  1  0.30323600  0.80960100  0.45669100  1
  O  O40  1  0.80323600  0.69039900  0.54330900  1
  O  O41  1  0.37819100  0.61280000  0.85629200  1
  O  O42  1  0.09787100  0.57069700  0.97883800  1
  O  O43  1  0.26800900  0.69273700  0.12900300  1
  O  O44  1  0.95409600  0.85369300  0.84687000  1
  O  O45  1  0.01154900  0.58687400  0.64930200  1
  O  O46  1  0.59787100  0.92930300  0.02116200  1
  O  O47  1  0.51154900  0.91312600  0.35069800  1
