# generated using pymatgen
data_DyFe5
_symmetry_space_group_name_H-M   'P 1'
_cell_length_a   5.00648955
_cell_length_b   5.00648955
_cell_length_c   3.95305900
_cell_angle_alpha   90.00000000
_cell_angle_beta   90.00000000
_cell_angle_gamma   119.99999401
_symmetry_Int_Tables_number   1
_chemical_formula_structural   DyFe5
_chemical_formula_sum   'Dy1 Fe5'
_cell_volume   85.80855362
_cell_formula_units_Z   1
loop_
 _symmetry_equiv_pos_site_id
 _symmetry_equiv_pos_as_xyz
  1  'x, y, z'
loop_
 _atom_site_type_symbol
 _atom_site_label
 _atom_site_symmetry_multiplicity
 _atom_site_fract_x
 _atom_site_fract_y
 _atom_site_fract_z
 _atom_site_occupancy
  Dy  Dy0  1  0.00000000  0.00000000  0.00000000  1
  Fe  Fe1  1  0.50000000  0.50000000  0.50000000  1
  Fe  Fe2  1  0.66666700  0.33333300  0.00000000  1
  Fe  Fe3  1  0.00000000  0.50000000  0.50000000  1
  Fe  Fe4  1  0.33333300  0.66666700  0.00000000  1
  Fe  Fe5  1  0.50000000  0.00000000  0.50000000  1
