# generated using pymatgen
data_GdH6C4NO9
_symmetry_space_group_name_H-M   'P 1'
_cell_length_a   6.15088100
_cell_length_b   7.95256000
_cell_length_c   12.38013230
_cell_angle_alpha   50.44057559
_cell_angle_beta   90.00000000
_cell_angle_gamma   90.00000000
_symmetry_Int_Tables_number   1
_chemical_formula_structural   GdH6C4NO9
_chemical_formula_sum   'Gd2 H12 C8 N2 O18'
_cell_volume   466.87855155
_cell_formula_units_Z   2
loop_
 _symmetry_equiv_pos_site_id
 _symmetry_equiv_pos_as_xyz
  1  'x, y, z'
loop_
 _atom_site_type_symbol
 _atom_site_label
 _atom_site_symmetry_multiplicity
 _atom_site_fract_x
 _atom_site_fract_y
 _atom_site_fract_z
 _atom_site_occupancy
  Gd  Gd0  1  0.60368000  0.50000000  0.25000000  1
  Gd  Gd1  1  0.39632000  0.50000000  0.75000000  1
  H  H2  1  0.91970900  0.03533600  0.30255400  1
  H  H3  1  0.08527600  0.60497200  0.16972800  1
  H  H4  1  0.88544400  0.86671800  0.82148600  1
  H  H5  1  0.08527600  0.39502800  0.33027200  1
  H  H6  1  0.91970900  0.96466400  0.19744600  1
  H  H7  1  0.91472400  0.39502800  0.83027200  1
  H  H8  1  0.11455600  0.86671800  0.32148600  1
  H  H9  1  0.91472400  0.60497200  0.66972800  1
  H  H10  1  0.08029100  0.03533600  0.80255400  1
  H  H11  1  0.08029100  0.96466400  0.69744600  1
  H  H12  1  0.88544400  0.13328200  0.67851400  1
  H  H13  1  0.11455600  0.13328200  0.17851400  1
  C  C14  1  0.40442200  0.42036900  0.04250700  1
  C  C15  1  0.40442200  0.57963100  0.45749300  1
  C  C16  1  0.61038200  0.03310500  0.01319800  1
  C  C17  1  0.38961800  0.96689500  0.98680200  1
  C  C18  1  0.38961800  0.03310500  0.51319800  1
  C  C19  1  0.61038200  0.96689500  0.48680200  1
  C  C20  1  0.59557800  0.42036900  0.54250700  1
  C  C21  1  0.59557800  0.57963100  0.95749300  1
  N  N22  1  0.01650500  0.00000000  0.25000000  1
  N  N23  1  0.98349500  0.00000000  0.75000000  1
  O  O24  1  0.38883800  0.33675400  0.16977100  1
  O  O25  1  0.72285000  0.88259400  0.11730600  1
  O  O26  1  0.33909600  0.76682600  0.07077400  1
  O  O27  1  0.27715000  0.11740600  0.88269400  1
  O  O28  1  0.27666400  0.38295700  0.97944600  1
  O  O29  1  0.61116200  0.33675400  0.66977100  1
  O  O30  1  0.72333600  0.38295700  0.47944600  1
  O  O31  1  0.66090400  0.23317400  0.92922600  1
  O  O32  1  0.66090400  0.76682600  0.57077400  1
  O  O33  1  0.72333600  0.61704300  0.02055400  1
  O  O34  1  0.27715000  0.88259400  0.61730600  1
  O  O35  1  0.33909600  0.23317400  0.42922600  1
  O  O36  1  0.38883800  0.66324600  0.33022900  1
  O  O37  1  0.72285000  0.11740600  0.38269400  1
  O  O38  1  0.99042400  0.50000000  0.25000000  1
  O  O39  1  0.00957600  0.50000000  0.75000000  1
  O  O40  1  0.61116200  0.66324600  0.83022900  1
  O  O41  1  0.27666400  0.61704300  0.52055400  1
