# generated using pymatgen
data_RbNO3
_symmetry_space_group_name_H-M   'P 1'
_cell_length_a   10.74204847
_cell_length_b   10.74204847
_cell_length_c   7.53490800
_cell_angle_alpha   90.00000000
_cell_angle_beta   90.00000000
_cell_angle_gamma   120.00000290
_symmetry_Int_Tables_number   1
_chemical_formula_structural   RbNO3
_chemical_formula_sum   'Rb9 N9 O27'
_cell_volume   752.97886850
_cell_formula_units_Z   9
loop_
 _symmetry_equiv_pos_site_id
 _symmetry_equiv_pos_as_xyz
  1  'x, y, z'
loop_
 _atom_site_type_symbol
 _atom_site_label
 _atom_site_symmetry_multiplicity
 _atom_site_fract_x
 _atom_site_fract_y
 _atom_site_fract_z
 _atom_site_occupancy
  Rb  Rb0  1  0.44833200  0.21820800  0.28898800  1
  Rb  Rb1  1  0.76987700  0.55166800  0.95565500  1
  Rb  Rb2  1  0.78179200  0.23012300  0.62232100  1
  Rb  Rb3  1  0.09112000  0.87320700  0.66769100  1
  Rb  Rb4  1  0.78208700  0.90888000  0.33435700  1
  Rb  Rb5  1  0.12679300  0.21791300  0.00102400  1
  Rb  Rb6  1  0.11245400  0.55176000  0.30287700  1
  Rb  Rb7  1  0.43930600  0.88754600  0.96954400  1
  Rb  Rb8  1  0.44824000  0.56069400  0.63621100  1
  N  N9  1  0.45716900  0.23627300  0.76150900  1
  N  N10  1  0.77910300  0.54283100  0.42817600  1
  N  N11  1  0.76372700  0.22089700  0.09484300  1
  N  N12  1  0.11277000  0.90440000  0.19376400  1
  N  N13  1  0.79163000  0.88723000  0.86043100  1
  N  N14  1  0.09560000  0.20837000  0.52709700  1
  N  N15  1  0.12693700  0.53745800  0.83094500  1
  N  N16  1  0.41052200  0.87306300  0.49761200  1
  N  N17  1  0.46254200  0.58947800  0.16427800  1
  O  O18  1  0.72559400  0.14482900  0.23359900  1
  O  O19  1  0.85517100  0.58076400  0.56693300  1
  O  O20  1  0.41923600  0.27440600  0.90026600  1
  O  O21  1  0.89485500  0.29770800  0.05313200  1
  O  O22  1  0.70229200  0.59714700  0.38646500  1
  O  O23  1  0.40285300  0.10514500  0.71979900  1
  O  O24  1  0.66739300  0.22033400  0.99443400  1
  O  O25  1  0.77966600  0.44705900  0.32776800  1
  O  O26  1  0.55294100  0.33260700  0.66110100  1
  O  O27  1  0.46276300  0.68962700  0.25657700  1
  O  O28  1  0.31037300  0.77313600  0.58991100  1
  O  O29  1  0.22686400  0.53723700  0.92324400  1
  O  O30  1  0.38611500  0.46055400  0.21389300  1
  O  O31  1  0.53944600  0.92556100  0.54722700  1
  O  O32  1  0.07443900  0.61388500  0.88056000  1
  O  O33  1  0.53892700  0.62208700  0.02558000  1
  O  O34  1  0.37791300  0.91684000  0.35891300  1
  O  O35  1  0.08316000  0.46107300  0.69224600  1
  O  O36  1  0.99858100  0.11303400  0.62731700  1
  O  O37  1  0.88696600  0.88554700  0.96065100  1
  O  O38  1  0.11445300  0.00141900  0.29398400  1
  O  O39  1  0.22642100  0.25800600  0.56538200  1
  O  O40  1  0.74199400  0.96841500  0.89871500  1
  O  O41  1  0.03158500  0.77357900  0.23204900  1
  O  O42  1  0.05766900  0.25056200  0.39131000  1
  O  O43  1  0.74943800  0.80710700  0.72464400  1
  O  O44  1  0.19289300  0.94233100  0.05797700  1
