# generated using pymatgen
data_CoNi(PO3)4
_symmetry_space_group_name_H-M   'P 1'
_cell_length_a   7.26770784
_cell_length_b   7.26770784
_cell_length_c   9.98284222
_cell_angle_alpha   66.99124370
_cell_angle_beta   66.99124370
_cell_angle_gamma   70.31183067
_symmetry_Int_Tables_number   1
_chemical_formula_structural   CoNi(PO3)4
_chemical_formula_sum   'Co2 Ni2 P8 O24'
_cell_volume   436.05287181
_cell_formula_units_Z   2
loop_
 _symmetry_equiv_pos_site_id
 _symmetry_equiv_pos_as_xyz
  1  'x, y, z'
loop_
 _atom_site_type_symbol
 _atom_site_label
 _atom_site_symmetry_multiplicity
 _atom_site_fract_x
 _atom_site_fract_y
 _atom_site_fract_z
 _atom_site_occupancy
  Co  Co0  1  0.94563900  0.05436100  0.25000000  1
  Co  Co1  1  0.05436100  0.94563900  0.75000000  1
  Ni  Ni2  1  0.50000000  0.00000000  0.50000000  1
  Ni  Ni3  1  0.00000000  0.50000000  0.00000000  1
  P  P4  1  0.31128300  0.29711300  0.19770700  1
  P  P5  1  0.70288700  0.68871700  0.30229300  1
  P  P6  1  0.68871700  0.70288700  0.80229300  1
  P  P7  1  0.29711300  0.31128300  0.69770700  1
  P  P8  1  0.72856900  0.25385100  0.97632400  1
  P  P9  1  0.74614900  0.27143100  0.52367600  1
  P  P10  1  0.27143100  0.74614900  0.02367600  1
  P  P11  1  0.25385100  0.72856900  0.47632400  1
  O  O12  1  0.31168100  0.53441700  0.15575800  1
  O  O13  1  0.46558300  0.68831900  0.34424200  1
  O  O14  1  0.68831900  0.46558300  0.84424200  1
  O  O15  1  0.53441700  0.31168100  0.65575800  1
  O  O16  1  0.49997400  0.21702800  0.06579900  1
  O  O17  1  0.78297200  0.50002600  0.43420100  1
  O  O18  1  0.50002600  0.78297200  0.93420100  1
  O  O19  1  0.21702800  0.49997400  0.56579900  1
  O  O20  1  0.34244700  0.19126200  0.34978500  1
  O  O21  1  0.80873800  0.65755300  0.15021500  1
  O  O22  1  0.65755300  0.80873800  0.65021500  1
  O  O23  1  0.19126200  0.34244700  0.84978500  1
  O  O24  1  0.12004000  0.28611900  0.17573300  1
  O  O25  1  0.71388100  0.87996000  0.32426700  1
  O  O26  1  0.87996000  0.71388100  0.82426700  1
  O  O27  1  0.28611900  0.12004000  0.67573300  1
  O  O28  1  0.80813400  0.29265500  0.08155400  1
  O  O29  1  0.70734500  0.19186600  0.41844600  1
  O  O30  1  0.19186600  0.70734500  0.91844600  1
  O  O31  1  0.29265500  0.80813400  0.58155400  1
  O  O32  1  0.84520400  0.08705000  0.90640400  1
  O  O33  1  0.91295000  0.15479600  0.59359600  1
  O  O34  1  0.15479600  0.91295000  0.09359600  1
  O  O35  1  0.08705000  0.84520400  0.40640400  1
