# generated using pymatgen
data_Nd23Mg4Rh7
_symmetry_space_group_name_H-M   'P 1'
_cell_length_a   10.08008416
_cell_length_b   10.08008416
_cell_length_c   22.69994100
_cell_angle_alpha   90.00000000
_cell_angle_beta   90.00000000
_cell_angle_gamma   120.00000104
_symmetry_Int_Tables_number   1
_chemical_formula_structural   Nd23Mg4Rh7
_chemical_formula_sum   'Nd46 Mg8 Rh14'
_cell_volume   1997.48566685
_cell_formula_units_Z   2
loop_
 _symmetry_equiv_pos_site_id
 _symmetry_equiv_pos_as_xyz
  1  'x, y, z'
loop_
 _atom_site_type_symbol
 _atom_site_label
 _atom_site_symmetry_multiplicity
 _atom_site_fract_x
 _atom_site_fract_y
 _atom_site_fract_z
 _atom_site_occupancy
  Nd  Nd0  1  0.45788600  0.91577300  0.85791800  1
  Nd  Nd1  1  0.00000000  0.00000000  0.99926100  1
  Nd  Nd2  1  0.74427100  0.87213600  0.13581200  1
  Nd  Nd3  1  0.87213600  0.74427100  0.63581200  1
  Nd  Nd4  1  0.79186300  0.20813700  0.94871100  1
  Nd  Nd5  1  0.20855200  0.41710500  0.72094200  1
  Nd  Nd6  1  0.58289500  0.79144800  0.72094200  1
  Nd  Nd7  1  0.54211400  0.08422700  0.35791800  1
  Nd  Nd8  1  0.78936700  0.57873300  0.49183500  1
  Nd  Nd9  1  0.54020300  0.45979700  0.08563200  1
  Nd  Nd10  1  0.79144800  0.58289500  0.22094200  1
  Nd  Nd11  1  0.41627300  0.20813700  0.94871100  1
  Nd  Nd12  1  0.78936700  0.21063300  0.49183500  1
  Nd  Nd13  1  0.21063300  0.42126700  0.99183500  1
  Nd  Nd14  1  0.25572900  0.12786400  0.63581200  1
  Nd  Nd15  1  0.45788600  0.54211400  0.85791800  1
  Nd  Nd16  1  0.40985900  0.20492900  0.78260800  1
  Nd  Nd17  1  0.79144800  0.20855200  0.22094200  1
  Nd  Nd18  1  0.79507100  0.20492900  0.78260800  1
  Nd  Nd19  1  0.21063300  0.78936700  0.99183500  1
  Nd  Nd20  1  0.42126700  0.21063300  0.49183500  1
  Nd  Nd21  1  0.58372700  0.79186300  0.44871100  1
  Nd  Nd22  1  0.20813700  0.41627300  0.44871100  1
  Nd  Nd23  1  0.12786400  0.25572900  0.13581200  1
  Nd  Nd24  1  0.08040500  0.54020300  0.58563200  1
  Nd  Nd25  1  0.66666700  0.33333300  0.64480200  1
  Nd  Nd26  1  0.79507100  0.59014100  0.78260800  1
  Nd  Nd27  1  0.87213600  0.12786400  0.63581200  1
  Nd  Nd28  1  0.79186300  0.58372700  0.94871100  1
  Nd  Nd29  1  0.57873300  0.78936700  0.99183500  1
  Nd  Nd30  1  0.20492900  0.79507100  0.28260800  1
  Nd  Nd31  1  0.45979700  0.91959500  0.58563200  1
  Nd  Nd32  1  0.20855200  0.79144800  0.72094200  1
  Nd  Nd33  1  0.41710500  0.20855200  0.22094200  1
  Nd  Nd34  1  0.91959500  0.45979700  0.08563200  1
  Nd  Nd35  1  0.12786400  0.87213600  0.13581200  1
  Nd  Nd36  1  0.59014100  0.79507100  0.28260800  1
  Nd  Nd37  1  0.45979700  0.54020300  0.58563200  1
  Nd  Nd38  1  0.91577300  0.45788600  0.35791800  1
  Nd  Nd39  1  0.00000000  0.00000000  0.49926100  1
  Nd  Nd40  1  0.33333300  0.66666700  0.14480200  1
  Nd  Nd41  1  0.08422700  0.54211400  0.85791800  1
  Nd  Nd42  1  0.54211400  0.45788600  0.35791800  1
  Nd  Nd43  1  0.54020300  0.08040500  0.08563200  1
  Nd  Nd44  1  0.20492900  0.40985900  0.28260800  1
  Nd  Nd45  1  0.20813700  0.79186300  0.44871100  1
  Mg  Mg46  1  0.00000000  0.00000000  0.25109700  1
  Mg  Mg47  1  0.10631100  0.21262200  0.86397500  1
  Mg  Mg48  1  0.10631100  0.89368900  0.86397500  1
  Mg  Mg49  1  0.89368900  0.78737800  0.36397500  1
  Mg  Mg50  1  0.78737800  0.89368900  0.86397500  1
  Mg  Mg51  1  0.21262200  0.10631100  0.36397500  1
  Mg  Mg52  1  0.00000000  0.00000000  0.75109700  1
  Mg  Mg53  1  0.89368900  0.10631100  0.36397500  1
  Rh  Rh54  1  0.66666700  0.33333300  0.86424100  1
  Rh  Rh55  1  0.52174000  0.04347900  0.71046700  1
  Rh  Rh56  1  0.47826000  0.52174000  0.21046700  1
  Rh  Rh57  1  0.04347900  0.52174000  0.21046700  1
  Rh  Rh58  1  0.47826000  0.95652100  0.21046700  1
  Rh  Rh59  1  0.14300800  0.28601600  0.56406900  1
  Rh  Rh60  1  0.85699200  0.71398400  0.06406900  1
  Rh  Rh61  1  0.85699200  0.14300800  0.06406900  1
  Rh  Rh62  1  0.33333300  0.66666700  0.36424100  1
  Rh  Rh63  1  0.95652100  0.47826000  0.71046700  1
  Rh  Rh64  1  0.28601600  0.14300800  0.06406900  1
  Rh  Rh65  1  0.52174000  0.47826000  0.71046700  1
  Rh  Rh66  1  0.14300800  0.85699200  0.56406900  1
  Rh  Rh67  1  0.71398400  0.85699200  0.56406900  1
