# generated using pymatgen
data_Co2W4C
_symmetry_space_group_name_H-M   'P 1'
_cell_length_a   8.01283788
_cell_length_b   8.01283788
_cell_length_c   8.01283788
_cell_angle_alpha   60.00000000
_cell_angle_beta   60.00000000
_cell_angle_gamma   60.00000000
_symmetry_Int_Tables_number   1
_chemical_formula_structural   Co2W4C
_chemical_formula_sum   'Co8 W16 C4'
_cell_volume   363.78439850
_cell_formula_units_Z   4
loop_
 _symmetry_equiv_pos_site_id
 _symmetry_equiv_pos_as_xyz
  1  'x, y, z'
loop_
 _atom_site_type_symbol
 _atom_site_label
 _atom_site_symmetry_multiplicity
 _atom_site_fract_x
 _atom_site_fract_y
 _atom_site_fract_z
 _atom_site_occupancy
  Co  Co0  1  0.91853300  0.24440200  0.91853300  1
  Co  Co1  1  0.24440200  0.91853300  0.91853300  1
  Co  Co2  1  0.91853300  0.91853300  0.24440200  1
  Co  Co3  1  0.00559800  0.33146700  0.33146700  1
  Co  Co4  1  0.33146700  0.00559800  0.33146700  1
  Co  Co5  1  0.91853300  0.91853300  0.91853300  1
  Co  Co6  1  0.33146700  0.33146700  0.33146700  1
  Co  Co7  1  0.33146700  0.33146700  0.00559800  1
  W  W8  1  0.62500000  0.12500000  0.12500000  1
  W  W9  1  0.56169000  0.93831000  0.56169000  1
  W  W10  1  0.68831000  0.31169000  0.68831000  1
  W  W11  1  0.68831000  0.68831000  0.31169000  1
  W  W12  1  0.31169000  0.31169000  0.68831000  1
  W  W13  1  0.68831000  0.31169000  0.31169000  1
  W  W14  1  0.31169000  0.68831000  0.68831000  1
  W  W15  1  0.93831000  0.56169000  0.56169000  1
  W  W16  1  0.12500000  0.12500000  0.62500000  1
  W  W17  1  0.93831000  0.93831000  0.56169000  1
  W  W18  1  0.31169000  0.68831000  0.31169000  1
  W  W19  1  0.56169000  0.56169000  0.93831000  1
  W  W20  1  0.93831000  0.56169000  0.93831000  1
  W  W21  1  0.12500000  0.62500000  0.12500000  1
  W  W22  1  0.12500000  0.12500000  0.12500000  1
  W  W23  1  0.56169000  0.93831000  0.93831000  1
  C  C24  1  0.62500000  0.62500000  0.62500000  1
  C  C25  1  0.12500000  0.62500000  0.62500000  1
  C  C26  1  0.62500000  0.12500000  0.62500000  1
  C  C27  1  0.62500000  0.62500000  0.12500000  1
