# generated using pymatgen
data_Cs2Ce10Os2I17
_symmetry_space_group_name_H-M   'P 1'
_cell_length_a   9.92960522
_cell_length_b   11.65109431
_cell_length_c   11.65109375
_cell_angle_alpha   107.56834888
_cell_angle_beta   93.61138368
_cell_angle_gamma   93.61138432
_symmetry_Int_Tables_number   1
_chemical_formula_structural   Cs2Ce10Os2I17
_chemical_formula_sum   'Cs2 Ce10 Os2 I17'
_cell_volume   1277.72973746
_cell_formula_units_Z   1
loop_
 _symmetry_equiv_pos_site_id
 _symmetry_equiv_pos_as_xyz
  1  'x, y, z'
loop_
 _atom_site_type_symbol
 _atom_site_label
 _atom_site_symmetry_multiplicity
 _atom_site_fract_x
 _atom_site_fract_y
 _atom_site_fract_z
 _atom_site_occupancy
  Cs  Cs0  1  0.00000000  0.82573400  0.17426600  1
  Cs  Cs1  1  0.00000000  0.17426600  0.82573400  1
  Ce  Ce2  1  0.55696200  0.83087000  0.83087000  1
  Ce  Ce3  1  0.81974800  0.29297900  0.29297900  1
  Ce  Ce4  1  0.42774200  0.79068300  0.49371500  1
  Ce  Ce5  1  0.57225800  0.50628500  0.20931700  1
  Ce  Ce6  1  0.18025200  0.70702100  0.70702100  1
  Ce  Ce7  1  0.67965900  0.56316000  0.56316000  1
  Ce  Ce8  1  0.32034100  0.43683900  0.43683900  1
  Ce  Ce9  1  0.42774200  0.49371500  0.79068300  1
  Ce  Ce10  1  0.57225800  0.20931700  0.50628500  1
  Ce  Ce11  1  0.44303800  0.16913000  0.16913000  1
  Os  Os12  1  0.57053400  0.35887700  0.35887700  1
  Os  Os13  1  0.42946600  0.64112300  0.64112300  1
  I  I14  1  0.42010400  0.97048000  0.30992400  1
  I  I15  1  0.86207500  0.11412900  0.45062700  1
  I  I16  1  0.42010400  0.30992400  0.97048000  1
  I  I17  1  0.72581200  0.74733200  0.40038200  1
  I  I18  1  0.13060000  0.21106300  0.21106300  1
  I  I19  1  0.57989600  0.69007600  0.02952000  1
  I  I20  1  0.27418800  0.59961800  0.25266800  1
  I  I21  1  0.86207500  0.45062700  0.11412900  1
  I  I22  1  0.27418800  0.25266800  0.59961800  1
  I  I23  1  0.57989600  0.02952000  0.69007600  1
  I  I24  1  0.72581200  0.40038200  0.74733200  1
  I  I25  1  0.71877400  0.06208800  0.06208800  1
  I  I26  1  0.13792500  0.54937300  0.88587100  1
  I  I27  1  0.00000000  0.50000000  0.50000000  1
  I  I28  1  0.86940000  0.78893700  0.78893700  1
  I  I29  1  0.13792500  0.88587100  0.54937300  1
  I  I30  1  0.28122600  0.93791200  0.93791200  1
