# generated using pymatgen
data_Na2Co5Mo4(ClO4)4
_symmetry_space_group_name_H-M   'P 1'
_cell_length_a   7.04305807
_cell_length_b   7.04397309
_cell_length_c   10.83103367
_cell_angle_alpha   74.60987679
_cell_angle_beta   74.77065431
_cell_angle_gamma   78.86633475
_symmetry_Int_Tables_number   1
_chemical_formula_structural   Na2Co5Mo4(ClO4)4
_chemical_formula_sum   'Na2 Co5 Mo4 Cl4 O16'
_cell_volume   495.46143662
_cell_formula_units_Z   1
loop_
 _symmetry_equiv_pos_site_id
 _symmetry_equiv_pos_as_xyz
  1  'x, y, z'
loop_
 _atom_site_type_symbol
 _atom_site_label
 _atom_site_symmetry_multiplicity
 _atom_site_fract_x
 _atom_site_fract_y
 _atom_site_fract_z
 _atom_site_occupancy
  Na  Na0  1  0.67096200  0.67089400  0.48784700  1
  Na  Na1  1  0.32902500  0.32914300  0.51216300  1
  Co  Co2  1  0.00010700  0.99989700  0.49999300  1
  Co  Co3  1  0.55869900  0.91716700  0.86478900  1
  Co  Co4  1  0.91674100  0.55906800  0.86472400  1
  Co  Co5  1  0.44128300  0.08282400  0.13511800  1
  Co  Co6  1  0.08325200  0.44094700  0.13538400  1
  Mo  Mo7  1  0.55144800  0.55091900  0.15167100  1
  Mo  Mo8  1  0.44857300  0.44905500  0.84833000  1
  Mo  Mo9  1  0.95798500  0.95733800  0.19411600  1
  Mo  Mo10  1  0.04194700  0.04272700  0.80588500  1
  Cl  Cl11  1  0.96482000  0.35631300  0.37464200  1
  Cl  Cl12  1  0.03526400  0.64360500  0.62534700  1
  Cl  Cl13  1  0.64304800  0.03625600  0.62566100  1
  Cl  Cl14  1  0.35703700  0.96366300  0.37434400  1
  O  O15  1  0.90072800  0.89900700  0.37071500  1
  O  O16  1  0.09929000  0.10097400  0.62929000  1
  O  O17  1  0.13786600  0.13766200  0.13219700  1
  O  O18  1  0.86214200  0.86233900  0.86780400  1
  O  O19  1  0.39172900  0.39145000  0.12654700  1
  O  O20  1  0.60828000  0.60853500  0.87344900  1
  O  O21  1  0.51990600  0.51890500  0.32121500  1
  O  O22  1  0.48013900  0.48103500  0.67878900  1
  O  O23  1  0.81274700  0.48275200  0.08277400  1
  O  O24  1  0.51687800  0.18748800  0.91747600  1
  O  O25  1  0.48303300  0.81246000  0.08255300  1
  O  O26  1  0.18731800  0.51733200  0.91718700  1
  O  O27  1  0.73204200  0.05491000  0.14224700  1
  O  O28  1  0.05521800  0.73181400  0.14203000  1
  O  O29  1  0.26786000  0.94524400  0.85778800  1
  O  O30  1  0.94463400  0.26827700  0.85792400  1
