# generated using pymatgen
data_BaNa5LiCo5F18
_symmetry_space_group_name_H-M   'P 1'
_cell_length_a   6.92269500
_cell_length_b   6.93605714
_cell_length_c   17.41465928
_cell_angle_alpha   97.59672447
_cell_angle_beta   97.61047576
_cell_angle_gamma   109.45816590
_symmetry_Int_Tables_number   1
_chemical_formula_structural   BaNa5LiCo5F18
_chemical_formula_sum   'Ba2 Na10 Li2 Co10 F36'
_cell_volume   767.44873792
_cell_formula_units_Z   2
loop_
 _symmetry_equiv_pos_site_id
 _symmetry_equiv_pos_as_xyz
  1  'x, y, z'
loop_
 _atom_site_type_symbol
 _atom_site_label
 _atom_site_symmetry_multiplicity
 _atom_site_fract_x
 _atom_site_fract_y
 _atom_site_fract_z
 _atom_site_occupancy
  Ba  Ba0  1  0.99777000  0.00069600  0.00191700  1
  Ba  Ba1  1  0.32993700  0.33251800  0.66487400  1
  Na  Na2  1  0.15975000  0.16917000  0.33436100  1
  Na  Na3  1  0.81174900  0.33072000  0.16189400  1
  Na  Na4  1  0.34041300  0.84059500  0.16632700  1
  Na  Na5  1  0.82508500  0.84262300  0.66821600  1
  Na  Na6  1  0.65551200  0.66787200  0.33319200  1
  Na  Na7  1  0.50631800  0.00114200  0.50154600  1
  Na  Na8  1  0.49270700  0.50898600  0.00296000  1
  Na  Na9  1  0.97487400  0.48597000  0.50208900  1
  Na  Na10  1  0.15106000  0.66643700  0.82854000  1
  Na  Na11  1  0.65248200  0.15773700  0.83455600  1
  Li  Li12  1  0.82998800  0.33406100  0.66655400  1
  Li  Li13  1  0.49654800  0.99977700  0.99966200  1
  Co  Co14  1  0.66134200  0.16749400  0.33267300  1
  Co  Co15  1  0.33225500  0.33649900  0.16964200  1
  Co  Co16  1  0.16238300  0.16754500  0.83386400  1
  Co  Co17  1  0.32849400  0.83249000  0.66531500  1
  Co  Co18  1  0.82700200  0.83379000  0.17038300  1
  Co  Co19  1  0.99086000  0.99532100  0.49689400  1
  Co  Co20  1  0.16023300  0.66585700  0.33305300  1
  Co  Co21  1  0.49610200  0.49979200  0.49623400  1
  Co  Co22  1  0.66152800  0.66639400  0.83396900  1
  Co  Co23  1  0.99470400  0.50009600  0.00122500  1
  F  F24  1  0.24777100  0.76508200  0.03096600  1
  F  F25  1  0.95368700  0.66762700  0.23751600  1
  F  F26  1  0.53613800  0.63347900  0.17470500  1
  F  F27  1  0.09568000  0.39113100  0.09944400  1
  F  F28  1  0.83442600  0.64244400  0.06814000  1
  F  F29  1  0.92507600  0.43559900  0.36557300  1
  F  F30  1  0.24333900  0.44380800  0.26901800  1
  F  F31  1  0.62232100  0.34332800  0.56665000  1
  F  F32  1  0.19933900  0.29857100  0.50116500  1
  F  F33  1  0.41685400  0.23044700  0.07032900  1
  F  F34  1  0.76095600  0.05723800  0.42855300  1
  F  F35  1  0.82175600  0.02645000  0.26910400  1
  F  F36  1  0.56342100  0.27355600  0.23750400  1
  F  F37  1  0.50257600  0.30953600  0.39762100  1
  F  F38  1  0.58121600  0.09685500  0.69579200  1
  F  F39  1  0.90800700  0.10739400  0.59578500  1
  F  F40  1  0.12539500  0.03529000  0.16579100  1
  F  F41  1  0.28516900  0.00733400  0.90135500  1
  F  F42  1  0.70311600  0.98779500  0.09881100  1
  F  F43  1  0.08355800  0.89174700  0.39878800  1
  F  F44  1  0.86611200  0.96663900  0.83753000  1
  F  F45  1  0.42754400  0.72436300  0.76303000  1
  F  F46  1  0.39921800  0.89689800  0.30243000  1
  F  F47  1  0.48809500  0.69044700  0.59835100  1
  F  F48  1  0.16899700  0.97585100  0.73136600  1
  F  F49  1  0.22880000  0.94210300  0.56754400  1
  F  F50  1  0.57983900  0.77582700  0.93188900  1
  F  F51  1  0.78750200  0.69984400  0.49231600  1
  F  F52  1  0.37001200  0.66389400  0.42912500  1
  F  F53  1  0.74746800  0.56240100  0.73464400  1
  F  F54  1  0.07769700  0.56568400  0.63696100  1
  F  F55  1  0.15514500  0.35593100  0.93535800  1
  F  F56  1  0.89623200  0.60950400  0.90346600  1
  F  F57  1  0.45748700  0.36621000  0.82871300  1
  F  F58  1  0.03787600  0.32224900  0.76340500  1
  F  F59  1  0.74387900  0.23386300  0.97132100  1
