# generated using pymatgen
data_Ce11MnS16
_symmetry_space_group_name_H-M   'P 1'
_cell_length_a   29.54287642
_cell_length_b   8.49942492
_cell_length_c   8.56200600
_cell_angle_alpha   90.00000000
_cell_angle_beta   54.57529957
_cell_angle_gamma   54.87263489
_symmetry_Int_Tables_number   1
_chemical_formula_structural   Ce11MnS16
_chemical_formula_sum   'Ce22 Mn2 S32'
_cell_volume   1240.52213354
_cell_formula_units_Z   2
loop_
 _symmetry_equiv_pos_site_id
 _symmetry_equiv_pos_as_xyz
  1  'x, y, z'
loop_
 _atom_site_type_symbol
 _atom_site_label
 _atom_site_symmetry_multiplicity
 _atom_site_fract_x
 _atom_site_fract_y
 _atom_site_fract_z
 _atom_site_occupancy
  Ce  Ce0  1  0.99897500  0.12428400  0.74573200  1
  Ce  Ce1  1  0.05964300  0.63363800  0.37887500  1
  Ce  Ce2  1  0.12462300  0.25102600  0.62745400  1
  Ce  Ce3  1  0.25066800  0.36934500  0.24629200  1
  Ce  Ce4  1  0.19035700  0.87220900  0.12112500  1
  Ce  Ce5  1  0.25102500  0.12018300  0.75426800  1
  Ce  Ce6  1  0.12537700  0.74951700  0.87254600  1
  Ce  Ce7  1  0.31397000  0.62468200  0.36514800  1
  Ce  Ce8  1  0.37500000  0.25000000  0.62130300  1
  Ce  Ce9  1  0.49897500  0.37981700  0.25837000  1
  Ce  Ce10  1  0.43603000  0.87531800  0.12102600  1
  Ce  Ce11  1  0.49933200  0.13065500  0.74896500  1
  Ce  Ce12  1  0.55964300  0.62779100  0.38255400  1
  Ce  Ce13  1  0.62537700  0.24897400  0.62594400  1
  Ce  Ce14  1  0.75102500  0.37571600  0.24163000  1
  Ce  Ce15  1  0.69035700  0.86636200  0.11744600  1
  Ce  Ce16  1  0.75066800  0.12798200  0.75103500  1
  Ce  Ce17  1  0.62462300  0.75048300  0.87405600  1
  Ce  Ce18  1  0.81397000  0.61943900  0.37897400  1
  Ce  Ce19  1  0.99933200  0.37201800  0.25370800  1
  Ce  Ce20  1  0.93603000  0.88056100  0.13485200  1
  Ce  Ce21  1  0.87500000  0.75000000  0.87869700  1
  Mn  Mn22  1  0.37500000  0.75000000  0.87339600  1
  Mn  Mn23  1  0.87500000  0.25000000  0.62660400  1
  S  S24  1  0.08652200  0.50145900  0.00326900  1
  S  S25  1  0.03830400  0.34749600  0.49875400  1
  S  S26  1  0.02961200  0.01144600  0.35909200  1
  S  S27  1  0.22038800  0.12989300  0.14090800  1
  S  S28  1  0.21169600  0.50071300  0.00124600  1
  S  S29  1  0.08726400  0.64933300  0.65045200  1
  S  S30  1  0.16273600  0.99838900  0.84954800  1
  S  S31  1  0.16347800  0.84754600  0.49673100  1
  S  S32  1  0.34045200  0.50754700  0.98594000  1
  S  S33  1  0.28740400  0.35036100  0.49860800  1
  S  S34  1  0.28526900  0.00697500  0.36181900  1
  S  S35  1  0.46259600  0.14963900  0.14822500  1
  S  S36  1  0.46473100  0.49302500  0.00289300  1
  S  S37  1  0.40954800  0.99245300  0.84774800  1
  S  S38  1  0.33650500  0.64823700  0.64455400  1
  S  S39  1  0.41349500  0.85176300  0.49057500  1
  S  S40  1  0.58726400  0.50161100  0.00049200  1
  S  S41  1  0.52961200  0.37010700  0.52246100  1
  S  S42  1  0.53830400  0.99928700  0.34802900  1
  S  S43  1  0.71169600  0.15250400  0.15197100  1
  S  S44  1  0.72038800  0.48855400  0.97753900  1
  S  S45  1  0.66347800  0.99854100  0.84935600  1
  S  S46  1  0.58652200  0.65245400  0.65064400  1
  S  S47  1  0.66273600  0.85066700  0.49950800  1
  S  S48  1  0.83650500  0.50574200  0.00942500  1
  S  S49  1  0.78526900  0.35195000  0.49710700  1
  S  S50  1  0.78740400  0.00002200  0.35177500  1
  S  S51  1  0.96473100  0.14805000  0.13818100  1
  S  S52  1  0.96259600  0.49997800  0.00139200  1
  S  S53  1  0.91349500  0.99425800  0.85544600  1
  S  S54  1  0.84045200  0.63064500  0.65225200  1
  S  S55  1  0.90954800  0.86935500  0.51406000  1
