# generated using pymatgen
data_Mg2H4Ru
_symmetry_space_group_name_H-M   'P 1'
_cell_length_a   5.48604216
_cell_length_b   5.48604216
_cell_length_c   4.81599700
_cell_angle_alpha   90.00000000
_cell_angle_beta   90.00000000
_cell_angle_gamma   100.73009210
_symmetry_Int_Tables_number   1
_chemical_formula_structural   Mg2H4Ru
_chemical_formula_sum   'Mg4 H8 Ru2'
_cell_volume   142.41106804
_cell_formula_units_Z   2
loop_
 _symmetry_equiv_pos_site_id
 _symmetry_equiv_pos_as_xyz
  1  'x, y, z'
loop_
 _atom_site_type_symbol
 _atom_site_label
 _atom_site_symmetry_multiplicity
 _atom_site_fract_x
 _atom_site_fract_y
 _atom_site_fract_z
 _atom_site_occupancy
  Mg  Mg0  1  0.35196800  0.06916500  0.25000000  1
  Mg  Mg1  1  0.06916500  0.35196800  0.75000000  1
  Mg  Mg2  1  0.64803200  0.93083500  0.75000000  1
  Mg  Mg3  1  0.93083500  0.64803200  0.25000000  1
  H  H4  1  0.13039200  0.35373200  0.25000000  1
  H  H5  1  0.35373200  0.13039200  0.75000000  1
  H  H6  1  0.86960800  0.64626800  0.75000000  1
  H  H7  1  0.64626800  0.86960800  0.25000000  1
  H  H8  1  0.72198600  0.27801400  0.01529900  1
  H  H9  1  0.27801400  0.72198600  0.98470100  1
  H  H10  1  0.72198600  0.27801400  0.48470100  1
  H  H11  1  0.27801400  0.72198600  0.51529900  1
  Ru  Ru12  1  0.86812200  0.13187800  0.25000000  1
  Ru  Ru13  1  0.13187800  0.86812200  0.75000000  1
