# generated using pymatgen
data_Sr5Mn5O13
_symmetry_space_group_name_H-M   'P 1'
_cell_length_a   3.86969800
_cell_length_b   8.78070401
_cell_length_c   8.78053201
_cell_angle_alpha   90.00445675
_cell_angle_beta   89.99719045
_cell_angle_gamma   90.00050625
_symmetry_Int_Tables_number   1
_chemical_formula_structural   Sr5Mn5O13
_chemical_formula_sum   'Sr5 Mn5 O13'
_cell_volume   298.35082239
_cell_formula_units_Z   1
loop_
 _symmetry_equiv_pos_site_id
 _symmetry_equiv_pos_as_xyz
  1  'x, y, z'
loop_
 _atom_site_type_symbol
 _atom_site_label
 _atom_site_symmetry_multiplicity
 _atom_site_fract_x
 _atom_site_fract_y
 _atom_site_fract_z
 _atom_site_occupancy
  Sr  Sr0  1  0.49999900  0.28207000  0.11219700  1
  Sr  Sr1  1  0.50004100  0.88773300  0.28209500  1
  Sr  Sr2  1  0.50005300  0.11216100  0.71803700  1
  Sr  Sr3  1  0.50001900  0.71801800  0.88776600  1
  Sr  Sr4  1  0.49995100  0.50002200  0.50000600  1
  Mn  Mn5  1  0.99994500  0.19836000  0.39974200  1
  Mn  Mn6  1  0.99998400  0.80170300  0.60037400  1
  Mn  Mn7  1  0.00000900  0.60029300  0.19832800  1
  Mn  Mn8  1  0.99999300  0.39967100  0.80170500  1
  Mn  Mn9  1  0.00000700  0.99999700  0.99988400  1
  O  O10  1  0.99999800  0.71240700  0.40165700  1
  O  O11  1  0.00003500  0.78789100  0.07297000  1
  O  O12  1  0.49988700  0.83713500  0.58444900  1
  O  O13  1  0.00002100  0.07290500  0.21219900  1
  O  O14  1  0.99999600  0.59838200  0.71240800  1
  O  O15  1  0.00001100  0.28762800  0.59841900  1
  O  O16  1  0.00001500  0.21211400  0.92716500  1
  O  O17  1  0.50000900  0.16298800  0.41546800  1
  O  O18  1  0.49987700  0.41551800  0.83697700  1
  O  O19  1  0.49999600  0.58449600  0.16283400  1
  O  O20  1  0.00002900  0.92710300  0.78797400  1
  O  O21  1  0.50013500  0.99978600  0.99971800  1
  O  O22  1  0.99999100  0.40161800  0.28762800  1
