# generated using pymatgen
data_La6Ti3Se9O5
_symmetry_space_group_name_H-M   'P 1'
_cell_length_a   3.92825934
_cell_length_b   11.25711998
_cell_length_c   22.50907486
_cell_angle_alpha   96.96936375
_cell_angle_beta   94.99360417
_cell_angle_gamma   89.98818611
_symmetry_Int_Tables_number   1
_chemical_formula_structural   La6Ti3Se9O5
_chemical_formula_sum   'La12 Ti6 Se18 O10'
_cell_volume   984.21255283
_cell_formula_units_Z   2
loop_
 _symmetry_equiv_pos_site_id
 _symmetry_equiv_pos_as_xyz
  1  'x, y, z'
loop_
 _atom_site_type_symbol
 _atom_site_label
 _atom_site_symmetry_multiplicity
 _atom_site_fract_x
 _atom_site_fract_y
 _atom_site_fract_z
 _atom_site_occupancy
  La  La0  1  0.36792187  0.34796883  0.72522651  1
  La  La1  1  0.46855983  0.25348229  0.92597816  1
  La  La2  1  0.53725046  0.74370057  0.07392290  1
  La  La3  1  0.89017655  0.98674200  0.77635071  1
  La  La4  1  0.95839591  0.74522566  0.91896259  1
  La  La5  1  0.79487758  0.53830384  0.57853744  1
  La  La6  1  0.63411578  0.64987696  0.27544531  1
  La  La7  1  0.04254985  0.25094666  0.08048479  1
  La  La8  1  0.21583421  0.46058466  0.42233071  1
  La  La9  1  0.78425592  0.99353954  0.57755252  1
  La  La10  1  0.21122595  0.00603425  0.42358975  1
  La  La11  1  0.10641387  0.01119774  0.22405928  1
  Ti  Ti12  1  0.27079685  0.25899153  0.53982223  1
  Ti  Ti13  1  0.64406278  0.34258696  0.28351810  1
  Ti  Ti14  1  0.35922313  0.65497412  0.71650393  1
  Ti  Ti15  1  0.00724538  0.49870969  0.99991026  1
  Ti  Ti16  1  0.72996288  0.74123192  0.46147836  1
  Ti  Ti17  1  0.49505267  0.99866491  0.99962018  1
  Se  Se18  1  0.58593338  0.18421643  0.18182323  1
  Se  Se19  1  0.41322162  0.81401191  0.81853384  1
  Se  Se20  1  0.27303777  0.76540459  0.54494969  1
  Se  Se21  1  0.16223239  0.22429190  0.32738302  1
  Se  Se22  1  0.95908937  0.02819667  0.91912513  1
  Se  Se23  1  0.91675215  0.25268500  0.81490077  1
  Se  Se24  1  0.18896807  0.71701025  0.37957503  1
  Se  Se25  1  0.10646175  0.44572957  0.22461212  1
  Se  Se26  1  0.73186289  0.23526442  0.45606246  1
  Se  Se27  1  0.65277593  0.93800580  0.31283988  1
  Se  Se28  1  0.03598209  0.96928734  0.08057226  1
  Se  Se29  1  0.83667322  0.77419975  0.67322877  1
  Se  Se30  1  0.46479881  0.52317200  0.91768756  1
  Se  Se31  1  0.09244117  0.74445370  0.18521910  1
  Se  Se32  1  0.34139665  0.06170174  0.68813205  1
  Se  Se33  1  0.88567847  0.55185270  0.77521538  1
  Se  Se34  1  0.54579904  0.47324593  0.08125536  1
  Se  Se35  1  0.81318858  0.28134621  0.62120471  1
  O  O36  1  0.27158360  0.43017754  0.53198346  1
  O  O37  1  0.99350568  0.32691961  0.97709978  1
  O  O38  1  0.48299086  0.82612854  0.97324450  1
  O  O39  1  0.26682270  0.08167989  0.53690381  1
  O  O40  1  0.73332986  0.91920600  0.46458333  1
  O  O41  1  0.66632689  0.46821323  0.34262518  1
  O  O42  1  0.01258692  0.66939253  0.02266361  1
  O  O43  1  0.73695359  0.57021315  0.46849726  1
  O  O44  1  0.51391001  0.17013177  0.02602598  1
  O  O45  1  0.32900405  0.53079571  0.65745101  1
