# generated using pymatgen
data_Ba3Gd2(PS4)4
_symmetry_space_group_name_H-M   'P 1'
_cell_length_a   10.42432303
_cell_length_b   12.82180576
_cell_length_c   19.38684528
_cell_angle_alpha   89.97931922
_cell_angle_beta   90.06328201
_cell_angle_gamma   89.96652332
_symmetry_Int_Tables_number   1
_chemical_formula_structural   Ba3Gd2(PS4)4
_chemical_formula_sum   'Ba12 Gd8 P16 S64'
_cell_volume   2591.21727955
_cell_formula_units_Z   4
loop_
 _symmetry_equiv_pos_site_id
 _symmetry_equiv_pos_as_xyz
  1  'x, y, z'
loop_
 _atom_site_type_symbol
 _atom_site_label
 _atom_site_symmetry_multiplicity
 _atom_site_fract_x
 _atom_site_fract_y
 _atom_site_fract_z
 _atom_site_occupancy
  Ba  Ba0  1  0.21088200  0.61039600  0.22788600  1
  Ba  Ba1  1  0.71087900  0.61041000  0.27212900  1
  Ba  Ba2  1  0.28900800  0.11040300  0.27210300  1
  Ba  Ba3  1  0.71094600  0.88957600  0.72790100  1
  Ba  Ba4  1  0.88096300  0.74995900  0.99997000  1
  Ba  Ba5  1  0.61908300  0.24998600  0.50001700  1
  Ba  Ba6  1  0.38091000  0.75003200  0.49997700  1
  Ba  Ba7  1  0.11910600  0.24999700  0.99999800  1
  Ba  Ba8  1  0.78908300  0.11036500  0.22790800  1
  Ba  Ba9  1  0.28912000  0.38965000  0.72789200  1
  Ba  Ba10  1  0.21091700  0.88956700  0.77210800  1
  Ba  Ba11  1  0.78910700  0.38965600  0.77212200  1
  Gd  Gd12  1  0.37096200  0.88735200  0.07393400  1
  Gd  Gd13  1  0.87097900  0.88733200  0.42611300  1
  Gd  Gd14  1  0.37112100  0.61271500  0.92614400  1
  Gd  Gd15  1  0.62898700  0.11266700  0.92605500  1
  Gd  Gd16  1  0.87106400  0.61271700  0.57389500  1
  Gd  Gd17  1  0.12907300  0.11268900  0.57388000  1
  Gd  Gd18  1  0.62901900  0.38729200  0.07387900  1
  Gd  Gd19  1  0.12890100  0.38726700  0.42615400  1
  P  P20  1  0.99561300  0.36077000  0.60297900  1
  P  P21  1  0.49552100  0.13920300  0.10303100  1
  P  P22  1  0.00440000  0.63924300  0.39704500  1
  P  P23  1  0.50424800  0.63923200  0.10308300  1
  P  P24  1  0.99572200  0.13932500  0.39692800  1
  P  P25  1  0.93943600  0.45160200  0.13092800  1
  P  P26  1  0.06041600  0.54842900  0.86895900  1
  P  P27  1  0.43936700  0.45163900  0.36899500  1
  P  P28  1  0.43945000  0.04835000  0.63099400  1
  P  P29  1  0.49577600  0.36079400  0.89691000  1
  P  P30  1  0.56053700  0.54837900  0.63104100  1
  P  P31  1  0.06067500  0.95157200  0.13102200  1
  P  P32  1  0.50442300  0.86077800  0.89697000  1
  P  P33  1  0.56059700  0.95162400  0.36903300  1
  P  P34  1  0.00432900  0.86064000  0.60307900  1
  P  P35  1  0.93933800  0.04839600  0.86889000  1
  S  S36  1  0.56697300  0.76911400  0.15267800  1
  S  S37  1  0.29488900  0.38676000  0.30737600  1
  S  S38  1  0.38811200  0.10013600  0.01714300  1
  S  S39  1  0.81918300  0.66811000  0.43055200  1
  S  S40  1  0.93300800  0.26918300  0.34728600  1
  S  S41  1  0.70489900  0.88675200  0.30730100  1
  S  S42  1  0.38808300  0.39986000  0.98282600  1
  S  S43  1  0.31915400  0.83192900  0.93059000  1
  S  S44  1  0.93162300  0.61204300  0.14648700  1
  S  S45  1  0.79515200  0.38676400  0.19271500  1
  S  S46  1  0.20502100  0.88672500  0.19269200  1
  S  S47  1  0.68072800  0.33187000  0.93058800  1
  S  S48  1  0.88174000  0.60534500  0.84961000  1
  S  S49  1  0.88164600  0.89465700  0.15035400  1
  S  S50  1  0.18084800  0.33191700  0.56943800  1
  S  S51  1  0.50600700  0.48550900  0.83127000  1
  S  S52  1  0.06678600  0.76910100  0.34732500  1
  S  S53  1  0.61187400  0.60013400  0.01717600  1
  S  S54  1  0.11191100  0.60004400  0.48287800  1
  S  S55  1  0.99386700  0.98550200  0.66867500  1
  S  S56  1  0.43165400  0.61200100  0.35356100  1
  S  S57  1  0.11715500  0.58593400  0.96780500  1
  S  S58  1  0.11845400  0.39462400  0.15044600  1
  S  S59  1  0.50613800  0.01453000  0.16878100  1
  S  S60  1  0.43168600  0.88797400  0.64646800  1
  S  S61  1  0.11834300  0.10531100  0.84966700  1
  S  S62  1  0.88312100  0.08598700  0.96785100  1
  S  S63  1  0.61700800  0.91404900  0.46777200  1
  S  S64  1  0.93180900  0.88798700  0.85356800  1
  S  S65  1  0.61829000  0.39460900  0.34969500  1
  S  S66  1  0.61187500  0.89985000  0.98288100  1
  S  S67  1  0.43315400  0.26914000  0.15266200  1
  S  S68  1  0.99386200  0.51455000  0.33123000  1
  S  S69  1  0.20494100  0.61323400  0.80729200  1
  S  S70  1  0.81924000  0.83193700  0.56938300  1
  S  S71  1  0.88808100  0.39994500  0.51709800  1
  S  S72  1  0.56833400  0.38797200  0.64644000  1
  S  S73  1  0.93321300  0.23086400  0.65264900  1
  S  S74  1  0.79498600  0.11326100  0.80731000  1
  S  S75  1  0.56680200  0.73083000  0.84735400  1
  S  S76  1  0.11187800  0.89986300  0.51716300  1
  S  S77  1  0.38161900  0.89466400  0.34957900  1
  S  S78  1  0.29509400  0.11326300  0.69268100  1
  S  S79  1  0.61693000  0.58596500  0.53211600  1
  S  S80  1  0.00615200  0.48538800  0.66876400  1
  S  S81  1  0.43298500  0.23091400  0.84729700  1
  S  S82  1  0.38305800  0.41400900  0.46786000  1
  S  S83  1  0.88300200  0.41413300  0.03227000  1
  S  S84  1  0.31921500  0.66815900  0.06940300  1
  S  S85  1  0.68081000  0.16802500  0.06943900  1
  S  S86  1  0.06697600  0.73086700  0.65269600  1
  S  S87  1  0.18076200  0.16807200  0.43059300  1
  S  S88  1  0.56828900  0.11204800  0.35351800  1
  S  S89  1  0.38170800  0.60537000  0.65029200  1
  S  S90  1  0.06843500  0.38796200  0.85352100  1
  S  S91  1  0.70503200  0.61321400  0.69264100  1
  S  S92  1  0.88814800  0.10016200  0.48282700  1
  S  S93  1  0.00614900  0.01453100  0.33131500  1
  S  S94  1  0.49380500  0.98542800  0.83124900  1
  S  S95  1  0.06817600  0.11203600  0.14645000  1
  S  S96  1  0.61835500  0.10533500  0.65039600  1
  S  S97  1  0.49396200  0.51451300  0.16873900  1
  S  S98  1  0.11685000  0.91407000  0.03219100  1
  S  S99  1  0.38300600  0.08596100  0.53217500  1
