# generated using pymatgen
data_Ca5MnSi9(Pb3O11)3
_symmetry_space_group_name_H-M   'P 1'
_cell_length_a   9.98896350
_cell_length_b   9.98896350
_cell_length_c   10.29275800
_cell_angle_alpha   90.00000000
_cell_angle_beta   90.00000000
_cell_angle_gamma   119.99999666
_symmetry_Int_Tables_number   1
_chemical_formula_structural   Ca5MnSi9(Pb3O11)3
_chemical_formula_sum   'Ca5 Mn1 Si9 Pb9 O33'
_cell_volume   889.41256445
_cell_formula_units_Z   1
loop_
 _symmetry_equiv_pos_site_id
 _symmetry_equiv_pos_as_xyz
  1  'x, y, z'
loop_
 _atom_site_type_symbol
 _atom_site_label
 _atom_site_symmetry_multiplicity
 _atom_site_fract_x
 _atom_site_fract_y
 _atom_site_fract_z
 _atom_site_occupancy
  Ca  Ca0  1  0.00000000  0.00000000  0.16056300  1
  Ca  Ca1  1  0.33333300  0.66666700  0.17918800  1
  Ca  Ca2  1  0.00000000  0.00000000  0.83943700  1
  Ca  Ca3  1  0.33333300  0.66666700  0.82081200  1
  Ca  Ca4  1  0.00000000  0.00000000  0.50000000  1
  Mn  Mn5  1  0.33333300  0.66666700  0.50000000  1
  Si  Si6  1  0.26278300  0.94994300  0.35160100  1
  Si  Si7  1  0.05005700  0.31284000  0.35160100  1
  Si  Si8  1  0.64298900  0.92434300  0.00000000  1
  Si  Si9  1  0.68716000  0.73721700  0.64839900  1
  Si  Si10  1  0.28135500  0.35701100  0.00000000  1
  Si  Si11  1  0.26278300  0.94994300  0.64839900  1
  Si  Si12  1  0.07565700  0.71864500  0.00000000  1
  Si  Si13  1  0.05005700  0.31284000  0.64839900  1
  Si  Si14  1  0.68716000  0.73721700  0.35160100  1
  Pb  Pb15  1  0.93690300  0.60569900  0.67701900  1
  Pb  Pb16  1  0.39430100  0.33120400  0.32298100  1
  Pb  Pb17  1  0.65139500  0.58560800  0.00000000  1
  Pb  Pb18  1  0.93421300  0.34860500  0.00000000  1
  Pb  Pb19  1  0.66879600  0.06309700  0.67701900  1
  Pb  Pb20  1  0.41439200  0.06578700  0.00000000  1
  Pb  Pb21  1  0.93690300  0.60569900  0.32298100  1
  Pb  Pb22  1  0.39430100  0.33120400  0.67701900  1
  Pb  Pb23  1  0.66879600  0.06309700  0.32298100  1
  O  O24  1  0.16301700  0.17327500  0.00000000  1
  O  O25  1  0.29350000  0.03392300  0.50000000  1
  O  O26  1  0.96607700  0.25957600  0.50000000  1
  O  O27  1  0.40403800  0.42037700  0.12445300  1
  O  O28  1  0.12543200  0.19817600  0.32990100  1
  O  O29  1  0.35715000  0.09267900  0.75166400  1
  O  O30  1  0.18244200  0.49220800  0.65155100  1
  O  O31  1  0.01633900  0.59596200  0.12445300  1
  O  O32  1  0.30976600  0.81755800  0.34844900  1
  O  O33  1  0.18244200  0.49220800  0.34844900  1
  O  O34  1  0.80182400  0.92725500  0.32990100  1
  O  O35  1  0.30976600  0.81755800  0.65155100  1
  O  O36  1  0.90732100  0.26447100  0.75166400  1
  O  O37  1  0.35715000  0.09267900  0.24833600  1
  O  O38  1  0.01025800  0.83698300  0.00000000  1
  O  O39  1  0.73552900  0.64285000  0.75166400  1
  O  O40  1  0.73552900  0.64285000  0.24833600  1
  O  O41  1  0.74042400  0.70650000  0.50000000  1
  O  O42  1  0.53773800  0.73288000  0.00000000  1
  O  O43  1  0.12543200  0.19817600  0.67009900  1
  O  O44  1  0.57962300  0.98366100  0.87554700  1
  O  O45  1  0.07274500  0.87456800  0.32990100  1
  O  O46  1  0.90732100  0.26447100  0.24833600  1
  O  O47  1  0.50779200  0.69023400  0.65155100  1
  O  O48  1  0.07274500  0.87456800  0.67009900  1
  O  O49  1  0.57962300  0.98366100  0.12445300  1
  O  O50  1  0.26712000  0.80485700  0.00000000  1
  O  O51  1  0.19514300  0.46226200  0.00000000  1
  O  O52  1  0.50779200  0.69023400  0.34844900  1
  O  O53  1  0.80182400  0.92725500  0.67009900  1
  O  O54  1  0.82672500  0.98974200  0.00000000  1
  O  O55  1  0.01633900  0.59596200  0.87554700  1
  O  O56  1  0.40403800  0.42037700  0.87554700  1
