# generated using pymatgen
data_Gd3Co29(Si2B5)2
_symmetry_space_group_name_H-M   'P 1'
_cell_length_a   7.81672600
_cell_length_b   11.15207400
_cell_length_c   11.15207400
_cell_angle_alpha   90.00000000
_cell_angle_beta   90.00000000
_cell_angle_gamma   90.00000000
_symmetry_Int_Tables_number   1
_chemical_formula_structural   Gd3Co29(Si2B5)2
_chemical_formula_sum   'Gd6 Co58 Si8 B20'
_cell_volume   972.15647690
_cell_formula_units_Z   2
loop_
 _symmetry_equiv_pos_site_id
 _symmetry_equiv_pos_as_xyz
  1  'x, y, z'
loop_
 _atom_site_type_symbol
 _atom_site_label
 _atom_site_symmetry_multiplicity
 _atom_site_fract_x
 _atom_site_fract_y
 _atom_site_fract_z
 _atom_site_occupancy
  Gd  Gd0  1  0.00000000  0.50000000  0.00000000  1
  Gd  Gd1  1  0.50000000  0.75000000  0.25000000  1
  Gd  Gd2  1  0.50000000  0.25000000  0.75000000  1
  Gd  Gd3  1  0.00000000  0.50000000  0.50000000  1
  Gd  Gd4  1  0.00000000  0.00000000  0.50000000  1
  Gd  Gd5  1  0.00000000  0.00000000  0.00000000  1
  Co  Co6  1  0.69750700  0.14003500  0.14003500  1
  Co  Co7  1  0.88825800  0.86002200  0.25000000  1
  Co  Co8  1  0.66390000  0.57547900  0.08865200  1
  Co  Co9  1  0.24973500  0.36426400  0.13573600  1
  Co  Co10  1  0.69750700  0.35996500  0.14003500  1
  Co  Co11  1  0.11174200  0.75000000  0.13997800  1
  Co  Co12  1  0.88825800  0.25000000  0.86002200  1
  Co  Co13  1  0.03021200  0.75000000  0.91489200  1
  Co  Co14  1  0.24973500  0.36426400  0.36426400  1
  Co  Co15  1  0.33610000  0.07547900  0.58865200  1
  Co  Co16  1  0.52715700  0.75000000  0.52255800  1
  Co  Co17  1  0.30249300  0.64003500  0.85996500  1
  Co  Co18  1  0.33610000  0.91134800  0.42452100  1
  Co  Co19  1  0.30249300  0.64003500  0.64003500  1
  Co  Co20  1  0.52715700  0.75000000  0.97744200  1
  Co  Co21  1  0.33610000  0.07547900  0.91134800  1
  Co  Co22  1  0.47284300  0.25000000  0.02255800  1
  Co  Co23  1  0.53225100  0.75000000  0.75000000  1
  Co  Co24  1  0.03021200  0.75000000  0.58510800  1
  Co  Co25  1  0.88825800  0.25000000  0.63997800  1
  Co  Co26  1  0.47284300  0.25000000  0.47744200  1
  Co  Co27  1  0.33610000  0.58865200  0.07547900  1
  Co  Co28  1  0.11174200  0.13997800  0.75000000  1
  Co  Co29  1  0.66390000  0.08865200  0.92452100  1
  Co  Co30  1  0.66390000  0.08865200  0.57547900  1
  Co  Co31  1  0.24973500  0.13573600  0.13573600  1
  Co  Co32  1  0.66390000  0.92452100  0.41134800  1
  Co  Co33  1  0.69750700  0.14003500  0.35996500  1
  Co  Co34  1  0.33610000  0.42452100  0.58865200  1
  Co  Co35  1  0.24973500  0.13573600  0.36426400  1
  Co  Co36  1  0.66390000  0.92452100  0.08865200  1
  Co  Co37  1  0.30249300  0.85996500  0.64003500  1
  Co  Co38  1  0.88825800  0.63997800  0.25000000  1
  Co  Co39  1  0.96978800  0.25000000  0.08510800  1
  Co  Co40  1  0.47284300  0.02255800  0.25000000  1
  Co  Co41  1  0.52715700  0.97744200  0.75000000  1
  Co  Co42  1  0.66390000  0.41134800  0.92452100  1
  Co  Co43  1  0.96978800  0.41489200  0.25000000  1
  Co  Co44  1  0.75026500  0.63573600  0.86426400  1
  Co  Co45  1  0.75026500  0.86426400  0.86426400  1
  Co  Co46  1  0.75026500  0.86426400  0.63573600  1
  Co  Co47  1  0.11174200  0.75000000  0.36002200  1
  Co  Co48  1  0.75026500  0.63573600  0.63573600  1
  Co  Co49  1  0.11174200  0.36002200  0.75000000  1
  Co  Co50  1  0.66390000  0.57547900  0.41134800  1
  Co  Co51  1  0.03021200  0.91489200  0.75000000  1
  Co  Co52  1  0.03021200  0.58510800  0.75000000  1
  Co  Co53  1  0.66390000  0.41134800  0.57547900  1
  Co  Co54  1  0.96978800  0.25000000  0.41489200  1
  Co  Co55  1  0.69750700  0.35996500  0.35996500  1
  Co  Co56  1  0.47284300  0.47744200  0.25000000  1
  Co  Co57  1  0.30249300  0.85996500  0.85996500  1
  Co  Co58  1  0.46774900  0.25000000  0.25000000  1
  Co  Co59  1  0.33610000  0.58865200  0.42452100  1
  Co  Co60  1  0.33610000  0.91134800  0.07547900  1
  Co  Co61  1  0.33610000  0.42452100  0.91134800  1
  Co  Co62  1  0.96978800  0.08510800  0.25000000  1
  Co  Co63  1  0.52715700  0.52255800  0.75000000  1
  Si  Si64  1  0.82508800  0.75000000  0.43139900  1
  Si  Si65  1  0.82508800  0.75000000  0.06860100  1
  Si  Si66  1  0.82508800  0.43139900  0.75000000  1
  Si  Si67  1  0.17491200  0.25000000  0.56860100  1
  Si  Si68  1  0.17491200  0.93139900  0.25000000  1
  Si  Si69  1  0.82508800  0.06860100  0.75000000  1
  Si  Si70  1  0.17491200  0.56860100  0.25000000  1
  Si  Si71  1  0.17491200  0.25000000  0.93139900  1
  B  B72  1  0.48121700  0.43631800  0.06368200  1
  B  B73  1  0.10106700  0.25000000  0.25000000  1
  B  B74  1  0.73647100  0.50577900  0.25000000  1
  B  B75  1  0.48121700  0.06368200  0.43631800  1
  B  B76  1  0.84871400  0.25000000  0.25000000  1
  B  B77  1  0.51878300  0.56368200  0.93631800  1
  B  B78  1  0.51878300  0.56368200  0.56368200  1
  B  B79  1  0.51878300  0.93631800  0.93631800  1
  B  B80  1  0.26352900  0.75000000  0.49422100  1
  B  B81  1  0.89893300  0.75000000  0.75000000  1
  B  B82  1  0.73647100  0.25000000  0.99422100  1
  B  B83  1  0.15128600  0.75000000  0.75000000  1
  B  B84  1  0.48121700  0.43631800  0.43631800  1
  B  B85  1  0.73647100  0.25000000  0.50577900  1
  B  B86  1  0.26352900  0.00577900  0.75000000  1
  B  B87  1  0.48121700  0.06368200  0.06368200  1
  B  B88  1  0.26352900  0.49422100  0.75000000  1
  B  B89  1  0.26352900  0.75000000  0.00577900  1
  B  B90  1  0.73647100  0.99422100  0.25000000  1
  B  B91  1  0.51878300  0.93631800  0.56368200  1
