# generated using pymatgen
data_Gd3RuO7
_symmetry_space_group_name_H-M   'P 1'
_cell_length_a   7.44050000
_cell_length_b   10.66609700
_cell_length_c   14.78366000
_cell_angle_alpha   90.00000000
_cell_angle_beta   90.00000000
_cell_angle_gamma   90.00000000
_symmetry_Int_Tables_number   1
_chemical_formula_structural   Gd3RuO7
_chemical_formula_sum   'Gd24 Ru8 O56'
_cell_volume   1173.24744169
_cell_formula_units_Z   8
loop_
 _symmetry_equiv_pos_site_id
 _symmetry_equiv_pos_as_xyz
  1  'x, y, z'
loop_
 _atom_site_type_symbol
 _atom_site_label
 _atom_site_symmetry_multiplicity
 _atom_site_fract_x
 _atom_site_fract_y
 _atom_site_fract_z
 _atom_site_occupancy
  Gd  Gd0  1  0.25000200  0.72943500  0.47194700  1
  Gd  Gd1  1  0.74310900  0.71736600  0.27283300  1
  Gd  Gd2  1  0.24999800  0.72943500  0.97194700  1
  Gd  Gd3  1  0.24310900  0.21736600  0.22716700  1
  Gd  Gd4  1  0.25689100  0.21736600  0.72716700  1
  Gd  Gd5  1  0.75000200  0.22943500  0.02805300  1
  Gd  Gd6  1  0.75530800  0.26950600  0.77745900  1
  Gd  Gd7  1  0.75689100  0.71736600  0.77283300  1
  Gd  Gd8  1  0.76359600  0.77984100  0.02155500  1
  Gd  Gd9  1  0.00362500  0.00724300  0.38865000  1
  Gd  Gd10  1  0.25530800  0.76950600  0.72254100  1
  Gd  Gd11  1  0.50362500  0.50724300  0.11135000  1
  Gd  Gd12  1  0.00415100  0.49068300  0.13836800  1
  Gd  Gd13  1  0.24469200  0.76950600  0.22254100  1
  Gd  Gd14  1  0.50415100  0.99068300  0.36163200  1
  Gd  Gd15  1  0.99637500  0.50724300  0.61135000  1
  Gd  Gd16  1  0.26359600  0.27984100  0.47844500  1
  Gd  Gd17  1  0.74469200  0.26950600  0.27745900  1
  Gd  Gd18  1  0.73640400  0.77984100  0.52155500  1
  Gd  Gd19  1  0.99584900  0.99068300  0.86163200  1
  Gd  Gd20  1  0.49584900  0.49068300  0.63836800  1
  Gd  Gd21  1  0.74999800  0.22943500  0.52805300  1
  Gd  Gd22  1  0.23640400  0.27984100  0.97844500  1
  Gd  Gd23  1  0.49637500  0.00724300  0.88865000  1
  Ru  Ru24  1  0.49748300  0.49975700  0.37302400  1
  Ru  Ru25  1  0.99748300  0.99975700  0.12697600  1
  Ru  Ru26  1  0.99844900  0.49816600  0.37558800  1
  Ru  Ru27  1  0.00251700  0.49975700  0.87302400  1
  Ru  Ru28  1  0.49844900  0.99816600  0.12441200  1
  Ru  Ru29  1  0.00155100  0.99816600  0.62441200  1
  Ru  Ru30  1  0.50251700  0.99975700  0.62697600  1
  Ru  Ru31  1  0.50155100  0.49816600  0.87558800  1
  O  O32  1  0.95732000  0.62674400  0.46893100  1
  O  O33  1  0.26653900  0.63384200  0.60574000  1
  O  O34  1  0.73346100  0.13384200  0.39426000  1
  O  O35  1  0.26504200  0.36859000  0.11873300  1
  O  O36  1  0.23346100  0.63384200  0.10574000  1
  O  O37  1  0.03714900  0.36806200  0.27985900  1
  O  O38  1  0.95892400  0.10564500  0.23728900  1
  O  O39  1  0.54268000  0.62674400  0.96893100  1
  O  O40  1  0.04268000  0.12674400  0.53106900  1
  O  O41  1  0.54107600  0.10564500  0.73728900  1
  O  O42  1  0.46583800  0.87127300  0.02950600  1
  O  O43  1  0.23495800  0.36859000  0.61873300  1
  O  O44  1  0.45892400  0.60564500  0.26271100  1
  O  O45  1  0.46285100  0.36806200  0.77985900  1
  O  O46  1  0.53714900  0.86806200  0.22014100  1
  O  O47  1  0.95988600  0.39627500  0.98465500  1
  O  O48  1  0.96468400  0.12389000  0.71985400  1
  O  O49  1  0.74134200  0.63007300  0.63138400  1
  O  O50  1  0.03416200  0.87127300  0.52950600  1
  O  O51  1  0.45732000  0.12674400  0.03106900  1
  O  O52  1  0.24134200  0.13007300  0.86861600  1
  O  O53  1  0.95595000  0.65610400  0.93810200  1
  O  O54  1  0.75099400  0.49095800  0.83070300  1
  O  O55  1  0.25099400  0.99095800  0.66929700  1
  O  O56  1  0.76242100  0.36603600  0.64389000  1
  O  O57  1  0.95089500  0.84862700  0.19418800  1
  O  O58  1  0.04107600  0.60564500  0.76271100  1
  O  O59  1  0.53416200  0.37127300  0.97049400  1
  O  O60  1  0.54011400  0.39627500  0.48465500  1
  O  O61  1  0.25114900  0.50737600  0.91898400  1
  O  O62  1  0.96583800  0.37127300  0.47049400  1
  O  O63  1  0.74885100  0.00737600  0.08101600  1
  O  O64  1  0.04910500  0.34862700  0.80581200  1
  O  O65  1  0.24900600  0.99095800  0.16929700  1
  O  O66  1  0.03531600  0.62389000  0.28014600  1
  O  O67  1  0.54405000  0.65610400  0.43810200  1
  O  O68  1  0.75865800  0.63007300  0.13138400  1
  O  O69  1  0.73495800  0.86859000  0.88126700  1
  O  O70  1  0.45988600  0.89627500  0.51534500  1
  O  O71  1  0.26242100  0.86603500  0.85611000  1
  O  O72  1  0.04405000  0.15610400  0.06189800  1
  O  O73  1  0.45595000  0.15610400  0.56189800  1
  O  O74  1  0.25865800  0.13007300  0.36861600  1
  O  O75  1  0.74900600  0.49095800  0.33070300  1
  O  O76  1  0.96285100  0.86806200  0.72014100  1
  O  O77  1  0.24885100  0.50737600  0.41898400  1
  O  O78  1  0.53531600  0.12389000  0.21985400  1
  O  O79  1  0.54910500  0.84862700  0.69418800  1
  O  O80  1  0.04011400  0.89627500  0.01534500  1
  O  O81  1  0.76653900  0.13384200  0.89426000  1
  O  O82  1  0.23757900  0.86603500  0.35611000  1
  O  O83  1  0.46468400  0.62389000  0.78014600  1
  O  O84  1  0.73757900  0.36603600  0.14389000  1
  O  O85  1  0.75114900  0.00737600  0.58101600  1
  O  O86  1  0.45089500  0.34862700  0.30581200  1
  O  O87  1  0.76504200  0.86859000  0.38126700  1
