# generated using pymatgen
data_Co2TeBr2O3
_symmetry_space_group_name_H-M   'P 1'
_cell_length_a   7.83619200
_cell_length_b   10.67811500
_cell_length_c   16.26008300
_cell_angle_alpha   90.00000000
_cell_angle_beta   90.00000000
_cell_angle_gamma   90.00000000
_symmetry_Int_Tables_number   1
_chemical_formula_structural   Co2TeBr2O3
_chemical_formula_sum   'Co16 Te8 Br16 O24'
_cell_volume   1360.57479193
_cell_formula_units_Z   8
loop_
 _symmetry_equiv_pos_site_id
 _symmetry_equiv_pos_as_xyz
  1  'x, y, z'
loop_
 _atom_site_type_symbol
 _atom_site_label
 _atom_site_symmetry_multiplicity
 _atom_site_fract_x
 _atom_site_fract_y
 _atom_site_fract_z
 _atom_site_occupancy
  Co  Co0  1  0.89420700  0.77116000  0.53676300  1
  Co  Co1  1  0.39420700  0.77116000  0.96323700  1
  Co  Co2  1  0.10579300  0.22884000  0.46323700  1
  Co  Co3  1  0.60579300  0.22884000  0.03676300  1
  Co  Co4  1  0.34514800  0.00709800  0.39884500  1
  Co  Co5  1  0.10579300  0.27116000  0.03676300  1
  Co  Co6  1  0.84514800  0.49290200  0.39884500  1
  Co  Co7  1  0.15485200  0.50709800  0.60115500  1
  Co  Co8  1  0.60579300  0.27116000  0.46323700  1
  Co  Co9  1  0.65485200  0.99290200  0.60115500  1
  Co  Co10  1  0.65485200  0.50709800  0.89884500  1
  Co  Co11  1  0.84514800  0.00709800  0.10115500  1
  Co  Co12  1  0.39420700  0.72884000  0.53676300  1
  Co  Co13  1  0.15485200  0.99290200  0.89884500  1
  Co  Co14  1  0.89420700  0.72884000  0.96323700  1
  Co  Co15  1  0.34514800  0.49290200  0.10115500  1
  Te  Te16  1  0.71116900  0.52665600  0.59804400  1
  Te  Te17  1  0.28883100  0.02665600  0.09804400  1
  Te  Te18  1  0.21116900  0.97334400  0.59804400  1
  Te  Te19  1  0.71116900  0.97334400  0.90195600  1
  Te  Te20  1  0.78883100  0.02665600  0.40195600  1
  Te  Te21  1  0.78883100  0.47334400  0.09804400  1
  Te  Te22  1  0.21116900  0.52665600  0.90195600  1
  Te  Te23  1  0.28883100  0.47334400  0.40195600  1
  Br  Br24  1  0.05812600  0.20867600  0.88294500  1
  Br  Br25  1  0.15715700  0.41085000  0.20516000  1
  Br  Br26  1  0.34284300  0.58915000  0.70516000  1
  Br  Br27  1  0.84284300  0.58915000  0.79484000  1
  Br  Br28  1  0.05812600  0.29132400  0.61705500  1
  Br  Br29  1  0.44187400  0.70867600  0.11705500  1
  Br  Br30  1  0.44187400  0.79132400  0.38294500  1
  Br  Br31  1  0.94187400  0.79132400  0.11705500  1
  Br  Br32  1  0.84284300  0.91085000  0.70516000  1
  Br  Br33  1  0.65715700  0.41085000  0.29484000  1
  Br  Br34  1  0.15715700  0.08915000  0.29484000  1
  Br  Br35  1  0.65715700  0.08915000  0.20516000  1
  Br  Br36  1  0.55812600  0.29132400  0.88294500  1
  Br  Br37  1  0.94187400  0.70867600  0.38294500  1
  Br  Br38  1  0.34284300  0.91085000  0.79484000  1
  Br  Br39  1  0.55812600  0.20867600  0.61705500  1
  O  O40  1  0.56308000  0.41090400  0.08173000  1
  O  O41  1  0.69339600  0.44504000  0.49185700  1
  O  O42  1  0.56308000  0.08909600  0.41827000  1
  O  O43  1  0.35661500  0.18808100  0.06039300  1
  O  O44  1  0.85661500  0.31191900  0.06039300  1
  O  O45  1  0.19339600  0.44504000  0.00814300  1
  O  O46  1  0.69339600  0.05496000  0.00814300  1
  O  O47  1  0.06308000  0.08909600  0.08173000  1
  O  O48  1  0.80660400  0.55496000  0.99185700  1
  O  O49  1  0.64338500  0.81191900  0.93960700  1
  O  O50  1  0.19339600  0.05496000  0.49185700  1
  O  O51  1  0.43692000  0.58909600  0.91827000  1
  O  O52  1  0.30660400  0.55496000  0.50814300  1
  O  O53  1  0.14338500  0.81191900  0.56039300  1
  O  O54  1  0.64338500  0.68808100  0.56039300  1
  O  O55  1  0.80660400  0.94504000  0.50814300  1
  O  O56  1  0.14338500  0.68808100  0.93960700  1
  O  O57  1  0.85661500  0.18808100  0.43960700  1
  O  O58  1  0.06308000  0.41090400  0.41827000  1
  O  O59  1  0.35661500  0.31191900  0.43960700  1
  O  O60  1  0.43692000  0.91090400  0.58173000  1
  O  O61  1  0.93692000  0.91090400  0.91827000  1
  O  O62  1  0.30660400  0.94504000  0.99185700  1
  O  O63  1  0.93692000  0.58909600  0.58173000  1
