# generated using pymatgen
data_Gd2Be2GeO7
_symmetry_space_group_name_H-M   'P 1'
_cell_length_a   4.86829340
_cell_length_b   7.51922262
_cell_length_c   7.51505253
_cell_angle_alpha   89.95807238
_cell_angle_beta   89.93997145
_cell_angle_gamma   90.06262662
_symmetry_Int_Tables_number   1
_chemical_formula_structural   Gd2Be2GeO7
_chemical_formula_sum   'Gd4 Be4 Ge2 O14'
_cell_volume   275.09398452
_cell_formula_units_Z   2
loop_
 _symmetry_equiv_pos_site_id
 _symmetry_equiv_pos_as_xyz
  1  'x, y, z'
loop_
 _atom_site_type_symbol
 _atom_site_label
 _atom_site_symmetry_multiplicity
 _atom_site_fract_x
 _atom_site_fract_y
 _atom_site_fract_z
 _atom_site_occupancy
  Gd  Gd0  1  0.50461600  0.65863100  0.15874900  1
  Gd  Gd1  1  0.50444800  0.34131800  0.84139600  1
  Gd  Gd2  1  0.49503100  0.84129600  0.65869200  1
  Gd  Gd3  1  0.49575900  0.15869300  0.34130500  1
  Be  Be4  1  0.95358600  0.13444700  0.63494700  1
  Be  Be5  1  0.04638100  0.36558200  0.13454000  1
  Be  Be6  1  0.95357100  0.86488800  0.36548300  1
  Be  Be7  1  0.04644900  0.63496500  0.86519300  1
  Ge  Ge8  1  0.00010600  0.99963600  0.99950800  1
  Ge  Ge9  1  0.00014100  0.50071500  0.49997200  1
  O  O10  1  0.28026300  0.85763700  0.35851000  1
  O  O11  1  0.21207900  0.41939500  0.32765000  1
  O  O12  1  0.78841300  0.32754800  0.58117100  1
  O  O13  1  0.71954000  0.35864700  0.14151600  1
  O  O14  1  0.78821000  0.91866100  0.17224200  1
  O  O15  1  0.21209400  0.58113100  0.67174300  1
  O  O16  1  0.81801700  0.99974500  0.50022000  1
  O  O17  1  0.28038000  0.14131400  0.64203500  1
  O  O18  1  0.18256500  0.50029100  0.99983500  1
  O  O19  1  0.71989200  0.64216500  0.85810100  1
  O  O20  1  0.21170000  0.17243700  0.08077400  1
  O  O21  1  0.78726100  0.08088300  0.82824300  1
  O  O22  1  0.21214500  0.82835400  0.91900400  1
  O  O23  1  0.78735400  0.67162300  0.41917200  1
