# generated using pymatgen
data_Ba17Yb16Zn8Pt4O57
_symmetry_space_group_name_H-M   'P 1'
_cell_length_a   16.50963780
_cell_length_b   16.50963780
_cell_length_c   16.50963780
_cell_angle_alpha   91.73428889
_cell_angle_beta   91.73428889
_cell_angle_gamma   159.96293030
_symmetry_Int_Tables_number   1
_chemical_formula_structural   Ba17Yb16Zn8Pt4O57
_chemical_formula_sum   'Ba17 Yb16 Zn8 Pt4 O57'
_cell_volume   1518.31612211
_cell_formula_units_Z   1
loop_
 _symmetry_equiv_pos_site_id
 _symmetry_equiv_pos_as_xyz
  1  'x, y, z'
loop_
 _atom_site_type_symbol
 _atom_site_label
 _atom_site_symmetry_multiplicity
 _atom_site_fract_x
 _atom_site_fract_y
 _atom_site_fract_z
 _atom_site_occupancy
  Ba  Ba0  1  0.10885900  0.27230800  0.38116700  1
  Ba  Ba1  1  0.06772000  0.44083700  0.50855700  1
  Ba  Ba2  1  0.27230800  0.89114100  0.16344900  1
  Ba  Ba3  1  0.93228000  0.55916300  0.49144300  1
  Ba  Ba4  1  0.35262900  0.34731200  0.69994000  1
  Ba  Ba5  1  0.26623600  0.18745800  0.45369400  1
  Ba  Ba6  1  0.55916300  0.06772000  0.62688400  1
  Ba  Ba7  1  0.44083700  0.93228000  0.37311600  1
  Ba  Ba8  1  0.89114100  0.72769200  0.61883300  1
  Ba  Ba9  1  0.72769200  0.10885900  0.83655100  1
  Ba  Ba10  1  0.18745800  0.73376400  0.92122300  1
  Ba  Ba11  1  0.34731200  0.64737100  0.99468300  1
  Ba  Ba12  1  0.64737100  0.65268800  0.30006000  1
  Ba  Ba13  1  0.65268800  0.35262900  0.00531700  1
  Ba  Ba14  1  0.81254200  0.26623600  0.07877700  1
  Ba  Ba15  1  0.00000000  0.00000000  0.00000000  1
  Ba  Ba16  1  0.73376400  0.81254200  0.54630600  1
  Yb  Yb17  1  0.49443100  0.25187800  0.74630900  1
  Yb  Yb18  1  0.60015200  0.49040300  0.09055500  1
  Yb  Yb19  1  0.49040300  0.39984800  0.89025000  1
  Yb  Yb20  1  0.05187800  0.82823500  0.88011300  1
  Yb  Yb21  1  0.50959700  0.60015200  0.10975000  1
  Yb  Yb22  1  0.94812200  0.17176500  0.11988700  1
  Yb  Yb23  1  0.25187800  0.50556900  0.75744700  1
  Yb  Yb24  1  0.05013400  0.67672400  0.72685800  1
  Yb  Yb25  1  0.39984800  0.50959700  0.90944500  1
  Yb  Yb26  1  0.17176500  0.05187800  0.22364300  1
  Yb  Yb27  1  0.50556900  0.74812200  0.25369100  1
  Yb  Yb28  1  0.82823500  0.94812200  0.77635700  1
  Yb  Yb29  1  0.32327600  0.05013400  0.37341100  1
  Yb  Yb30  1  0.94986600  0.32327600  0.27314200  1
  Yb  Yb31  1  0.67672400  0.94986600  0.62658900  1
  Yb  Yb32  1  0.74812200  0.49443100  0.24255300  1
  Zn  Zn33  1  0.13033900  0.92700000  0.05733900  1
  Zn  Zn34  1  0.38002100  0.78621100  0.16623200  1
  Zn  Zn35  1  0.78621100  0.61997900  0.40619000  1
  Zn  Zn36  1  0.21378900  0.38002100  0.59381000  1
  Zn  Zn37  1  0.92700000  0.86966100  0.79666200  1
  Zn  Zn38  1  0.61997900  0.21378900  0.83376800  1
  Zn  Zn39  1  0.07300000  0.13033900  0.20333800  1
  Zn  Zn40  1  0.86966100  0.07300000  0.94266100  1
  Pt  Pt41  1  0.14451600  0.58316100  0.72767700  1
  Pt  Pt42  1  0.85548400  0.41683900  0.27232300  1
  Pt  Pt43  1  0.58316100  0.85548400  0.43864500  1
  Pt  Pt44  1  0.41683900  0.14451600  0.56135500  1
  O  O45  1  0.00580200  0.17683800  0.67773600  1
  O  O46  1  0.28262900  0.59632500  0.36190500  1
  O  O47  1  0.87773200  0.39437900  0.76752300  1
  O  O48  1  0.93747000  0.72614000  0.14585300  1
  O  O49  1  0.37314300  0.88979000  0.76752300  1
  O  O50  1  0.23442100  0.92072400  0.63809500  1
  O  O51  1  0.76295100  0.70231900  0.46527000  1
  O  O52  1  0.15575400  0.16322600  0.31898000  1
  O  O53  1  0.84599000  0.82618600  0.15811800  1
  O  O54  1  0.62685700  0.11021000  0.23247700  1
  O  O55  1  0.17683800  0.49910200  0.17103600  1
  O  O56  1  0.33193100  0.31212700  0.15811800  1
  O  O57  1  0.41971200  0.20838200  0.14585300  1
  O  O58  1  0.66806900  0.68787300  0.84188200  1
  O  O59  1  0.82316200  0.50089800  0.82896400  1
  O  O60  1  0.23704900  0.29768100  0.53473000  1
  O  O61  1  0.49910200  0.32806600  0.32226400  1
  O  O62  1  0.79161800  0.93747000  0.21133000  1
  O  O63  1  0.59632500  0.23442100  0.31369700  1
  O  O64  1  0.71737100  0.40367500  0.63809500  1
  O  O65  1  0.22766100  0.60957600  0.83723600  1
  O  O66  1  0.50000000  0.50000000  0.00000000  1
  O  O67  1  0.27386000  0.41971200  0.21133000  1
  O  O68  1  0.67193400  0.99419800  0.17103600  1
  O  O69  1  0.20838200  0.06253000  0.78867000  1
  O  O70  1  0.50089800  0.67193400  0.67773600  1
  O  O71  1  0.58028800  0.79161800  0.85414700  1
  O  O72  1  0.43810000  0.05860900  0.49670900  1
  O  O73  1  0.12226800  0.60562100  0.23247700  1
  O  O74  1  0.06253000  0.27386000  0.85414700  1
  O  O75  1  0.07927600  0.71737100  0.31369700  1
  O  O76  1  0.76557900  0.07927600  0.36190500  1
  O  O77  1  0.70231900  0.23704900  0.93936800  1
  O  O78  1  0.31212700  0.15401000  0.98019600  1
  O  O79  1  0.11021000  0.87773200  0.48335300  1
  O  O80  1  0.40367500  0.76557900  0.68630300  1
  O  O81  1  0.15401000  0.17381400  0.84188200  1
  O  O82  1  0.84424600  0.83677400  0.68102000  1
  O  O83  1  0.60562100  0.37314300  0.48335300  1
  O  O84  1  0.99419800  0.82316200  0.32226400  1
  O  O85  1  0.17381400  0.33193100  0.01980400  1
  O  O86  1  0.92072400  0.28262900  0.68630300  1
  O  O87  1  0.83677400  0.15575400  0.99252800  1
  O  O88  1  0.88979000  0.12226800  0.51664700  1
  O  O89  1  0.29768100  0.76295100  0.06063200  1
  O  O90  1  0.60957600  0.77233900  0.38191500  1
  O  O91  1  0.68787300  0.84599000  0.01980400  1
  O  O92  1  0.39437900  0.62685700  0.51664700  1
  O  O93  1  0.77233900  0.39042400  0.16276400  1
  O  O94  1  0.39042400  0.22766100  0.61808500  1
  O  O95  1  0.05860900  0.56190000  0.62050800  1
  O  O96  1  0.56190000  0.94139100  0.50329100  1
  O  O97  1  0.72614000  0.58028800  0.78867000  1
  O  O98  1  0.32806600  0.00580200  0.82896400  1
  O  O99  1  0.82618600  0.66806900  0.98019600  1
  O  O100  1  0.94139100  0.43810000  0.37949200  1
  O  O101  1  0.16322600  0.84424600  0.00747200  1
