# generated using pymatgen
data_Er4Zr3O12
_symmetry_space_group_name_H-M   'P 1'
_cell_length_a   6.39215600
_cell_length_b   6.41994081
_cell_length_c   12.83467859
_cell_angle_alpha   99.11522823
_cell_angle_beta   99.45898151
_cell_angle_gamma   99.33111143
_symmetry_Int_Tables_number   1
_chemical_formula_structural   Er4Zr3O12
_chemical_formula_sum   'Er8 Zr6 O24'
_cell_volume   503.31227502
_cell_formula_units_Z   2
loop_
 _symmetry_equiv_pos_site_id
 _symmetry_equiv_pos_as_xyz
  1  'x, y, z'
loop_
 _atom_site_type_symbol
 _atom_site_label
 _atom_site_symmetry_multiplicity
 _atom_site_fract_x
 _atom_site_fract_y
 _atom_site_fract_z
 _atom_site_occupancy
  Er  Er0  1  0.39020100  0.86260200  0.09677500  1
  Er  Er1  1  0.30937900  0.60994100  0.81927400  1
  Er  Er2  1  0.30308800  0.61110900  0.31925400  1
  Er  Er3  1  0.86026900  0.69142300  0.44594100  1
  Er  Er4  1  0.69062100  0.39005900  0.18072600  1
  Er  Er5  1  0.13973100  0.30857700  0.55405900  1
  Er  Er6  1  0.60979900  0.13739800  0.90322500  1
  Er  Er7  1  0.69691200  0.38889100  0.68074600  1
  Zr  Zr8  1  0.38955200  0.85638400  0.59344000  1
  Zr  Zr9  1  0.00499100  0.00540700  0.75243700  1
  Zr  Zr10  1  0.85601000  0.68152100  0.94505000  1
  Zr  Zr11  1  0.14399000  0.31847900  0.05495000  1
  Zr  Zr12  1  0.99500900  0.99459300  0.24756300  1
  Zr  Zr13  1  0.61044800  0.14361600  0.40656000  1
  O  O14  1  0.31791300  0.94433600  0.78804500  1
  O  O15  1  0.04119400  0.90563400  0.08841200  1
  O  O16  1  0.32165800  0.95917200  0.29485300  1
  O  O17  1  0.58622600  0.81899000  0.96242700  1
  O  O18  1  0.07284900  0.92056100  0.59323400  1
  O  O19  1  0.92194600  0.68869000  0.78881400  1
  O  O20  1  0.56966500  0.82966700  0.46338800  1
  O  O21  1  0.17235500  0.57457300  0.96555200  1
  O  O22  1  0.92602600  0.68217600  0.27813900  1
  O  O23  1  0.40811600  0.56504900  0.15815700  1
  O  O24  1  0.18476600  0.59164200  0.46855800  1
  O  O25  1  0.59188400  0.43495100  0.84184300  1
  O  O26  1  0.42326500  0.58229000  0.65890700  1
  O  O27  1  0.82764500  0.42542700  0.03444800  1
  O  O28  1  0.57673500  0.41771000  0.34109300  1
  O  O29  1  0.07805400  0.31131000  0.21118600  1
  O  O30  1  0.81523400  0.40835800  0.53144200  1
  O  O31  1  0.41377400  0.18101000  0.03757300  1
  O  O32  1  0.07397400  0.31782400  0.72186100  1
  O  O33  1  0.95880600  0.09436600  0.91158800  1
  O  O34  1  0.43033500  0.17033300  0.53661200  1
  O  O35  1  0.68208700  0.05566400  0.21195500  1
  O  O36  1  0.92715100  0.07943900  0.40676600  1
  O  O37  1  0.67834200  0.04082800  0.70514700  1
