# generated using pymatgen
data_Te6MoBr3
_symmetry_space_group_name_H-M   'P 1'
_cell_length_a   8.63553300
_cell_length_b   12.05952458
_cell_length_c   14.64510094
_cell_angle_alpha   81.43603408
_cell_angle_beta   83.16133944
_cell_angle_gamma   73.94515722
_symmetry_Int_Tables_number   1
_chemical_formula_structural   Te6MoBr3
_chemical_formula_sum   'Te24 Mo4 Br12'
_cell_volume   1444.44375518
_cell_formula_units_Z   4
loop_
 _symmetry_equiv_pos_site_id
 _symmetry_equiv_pos_as_xyz
  1  'x, y, z'
loop_
 _atom_site_type_symbol
 _atom_site_label
 _atom_site_symmetry_multiplicity
 _atom_site_fract_x
 _atom_site_fract_y
 _atom_site_fract_z
 _atom_site_occupancy
  Te  Te0  1  0.33142700  0.34828300  0.45499100  1
  Te  Te1  1  0.17614800  0.15560600  0.05652900  1
  Te  Te2  1  0.46360700  0.81046200  0.30406500  1
  Te  Te3  1  0.90392700  0.19818200  0.95629700  1
  Te  Te4  1  0.18841800  0.47153700  0.10612800  1
  Te  Te5  1  0.35456000  0.70954200  0.47444300  1
  Te  Te6  1  0.76711200  0.95647900  0.53055600  1
  Te  Te7  1  0.23288800  0.04352100  0.46944400  1
  Te  Te8  1  0.78482100  0.72856300  0.36810400  1
  Te  Te9  1  0.82385200  0.84439400  0.94347100  1
  Te  Te10  1  0.64544000  0.29045800  0.52555700  1
  Te  Te11  1  0.96997400  0.23985800  0.20855300  1
  Te  Te12  1  0.14506000  0.42753300  0.86938800  1
  Te  Te13  1  0.29949500  0.70011900  0.89670100  1
  Te  Te14  1  0.81158200  0.52846300  0.89387200  1
  Te  Te15  1  0.53639300  0.18953800  0.69593500  1
  Te  Te16  1  0.70050500  0.29988100  0.10329900  1
  Te  Te17  1  0.63597100  0.06221700  0.36560600  1
  Te  Te18  1  0.85494000  0.57246700  0.13061200  1
  Te  Te19  1  0.36402900  0.93778300  0.63439400  1
  Te  Te20  1  0.09607300  0.80181800  0.04370300  1
  Te  Te21  1  0.21517900  0.27143700  0.63189600  1
  Te  Te22  1  0.66857300  0.65171700  0.54500900  1
  Te  Te23  1  0.03002600  0.76014200  0.79144700  1
  Mo  Mo24  1  0.02658400  0.61675800  0.96528200  1
  Mo  Mo25  1  0.97341600  0.38324200  0.03471800  1
  Mo  Mo26  1  0.52922500  0.88291900  0.46739600  1
  Mo  Mo27  1  0.47077500  0.11708100  0.53260400  1
  Br  Br28  1  0.49809400  0.33381800  0.92590700  1
  Br  Br29  1  0.02161300  0.37328000  0.40234400  1
  Br  Br30  1  0.50190600  0.66618200  0.07409300  1
  Br  Br31  1  0.86817800  0.11150800  0.71952200  1
  Br  Br32  1  0.61782300  0.39580300  0.30110100  1
  Br  Br33  1  0.38217700  0.60419700  0.69889900  1
  Br  Br34  1  0.13182200  0.88849200  0.28047800  1
  Br  Br35  1  0.35514500  0.16769100  0.23162000  1
  Br  Br36  1  0.25415300  0.10076700  0.84783100  1
  Br  Br37  1  0.64485500  0.83230900  0.76838000  1
  Br  Br38  1  0.97838700  0.62672000  0.59765600  1
  Br  Br39  1  0.74584700  0.89923300  0.15216900  1
