# generated using pymatgen
data_SrIn
_symmetry_space_group_name_H-M   'P 1'
_cell_length_a   6.66984621
_cell_length_b   6.67585993
_cell_length_c   13.86421803
_cell_angle_alpha   101.34789279
_cell_angle_beta   101.33874986
_cell_angle_gamma   100.78099417
_symmetry_Int_Tables_number   1
_chemical_formula_structural   SrIn
_chemical_formula_sum   'Sr8 In8'
_cell_volume   576.85502537
_cell_formula_units_Z   8
loop_
 _symmetry_equiv_pos_site_id
 _symmetry_equiv_pos_as_xyz
  1  'x, y, z'
loop_
 _atom_site_type_symbol
 _atom_site_label
 _atom_site_symmetry_multiplicity
 _atom_site_fract_x
 _atom_site_fract_y
 _atom_site_fract_z
 _atom_site_occupancy
  Sr  Sr0  1  0.72134015  0.41983211  0.63995866  1
  Sr  Sr1  1  0.20930446  0.91052609  0.15497064  1
  Sr  Sr2  1  0.77793381  0.07452308  0.35865381  1
  Sr  Sr3  1  0.30143848  0.50383619  0.34447938  1
  Sr  Sr4  1  0.33134369  0.52864368  0.85781513  1
  Sr  Sr5  1  0.76119291  0.05734691  0.84434008  1
  Sr  Sr6  1  0.16679188  0.96409675  0.65446573  1
  Sr  Sr7  1  0.66818062  0.46843582  0.14294043  1
  In  In8  1  0.87208263  0.62685198  0.42731691  1
  In  In9  1  0.28756963  0.03755817  0.93183386  1
  In  In10  1  0.10480165  0.35519993  0.07041552  1
  In  In11  1  0.20735743  0.44691526  0.57409850  1
  In  In12  1  0.69456977  0.95054309  0.07334751  1
  In  In13  1  0.88151914  0.62247226  0.92595489  1
  In  In14  1  0.60576750  0.85637758  0.56738160  1
  In  In15  1  0.28557226  0.03347610  0.42813637  1
