# generated using pymatgen
data_Sr6La2Ta3Al5O24
_symmetry_space_group_name_H-M   'P 1'
_cell_length_a   18.33394309
_cell_length_b   18.33394309
_cell_length_c   18.33394375
_cell_angle_alpha   17.30348610
_cell_angle_beta   17.30348610
_cell_angle_gamma   17.30348400
_symmetry_Int_Tables_number   1
_chemical_formula_structural   Sr6La2Ta3Al5O24
_chemical_formula_sum   'Sr6 La2 Ta3 Al5 O24'
_cell_volume   475.73412979
_cell_formula_units_Z   1
loop_
 _symmetry_equiv_pos_site_id
 _symmetry_equiv_pos_as_xyz
  1  'x, y, z'
loop_
 _atom_site_type_symbol
 _atom_site_label
 _atom_site_symmetry_multiplicity
 _atom_site_fract_x
 _atom_site_fract_y
 _atom_site_fract_z
 _atom_site_occupancy
  Sr  Sr0  1  0.56272500  0.56272500  0.56272500  1
  Sr  Sr1  1  0.93982100  0.93982100  0.93982100  1
  Sr  Sr2  1  0.81251300  0.81251300  0.81251300  1
  Sr  Sr3  1  0.18748700  0.18748700  0.18748700  1
  Sr  Sr4  1  0.06017900  0.06017900  0.06017900  1
  Sr  Sr5  1  0.43727500  0.43727500  0.43727500  1
  La  La6  1  0.31473200  0.31473200  0.31473200  1
  La  La7  1  0.68526800  0.68526800  0.68526800  1
  Ta  Ta8  1  0.25027000  0.25027000  0.25027000  1
  Ta  Ta9  1  0.50000000  0.50000000  0.50000000  1
  Ta  Ta10  1  0.74973000  0.74973000  0.74973000  1
  Al  Al11  1  0.00000000  0.00000000  0.00000000  1
  Al  Al12  1  0.62610500  0.62610500  0.62610500  1
  Al  Al13  1  0.87521600  0.87521600  0.87521600  1
  Al  Al14  1  0.12478400  0.12478400  0.12478400  1
  Al  Al15  1  0.37389500  0.37389500  0.37389500  1
  O  O16  1  0.18911000  0.68118000  0.18911000  1
  O  O17  1  0.31882000  0.81089000  0.81089000  1
  O  O18  1  0.44074200  0.93477100  0.44074200  1
  O  O19  1  0.81089000  0.31882000  0.81089000  1
  O  O20  1  0.18911000  0.18911000  0.68118000  1
  O  O21  1  0.56779900  0.05953400  0.05953400  1
  O  O22  1  0.69103700  0.18170600  0.69103700  1
  O  O23  1  0.81089000  0.81089000  0.31882000  1
  O  O24  1  0.05953400  0.56779900  0.05953400  1
  O  O25  1  0.44074200  0.44074200  0.93477100  1
  O  O26  1  0.81829400  0.30896300  0.30896300  1
  O  O27  1  0.68118000  0.18911000  0.18911000  1
  O  O28  1  0.94046600  0.43220100  0.94046600  1
  O  O29  1  0.05953400  0.05953400  0.56779900  1
  O  O30  1  0.30896300  0.81829400  0.30896300  1
  O  O31  1  0.69103700  0.69103700  0.18170600  1
  O  O32  1  0.06522900  0.55925800  0.55925800  1
  O  O33  1  0.93477100  0.44074200  0.44074200  1
  O  O34  1  0.30896300  0.30896300  0.81829400  1
  O  O35  1  0.94046600  0.94046600  0.43220100  1
  O  O36  1  0.18170600  0.69103700  0.69103700  1
  O  O37  1  0.55925800  0.55925800  0.06522900  1
  O  O38  1  0.43220100  0.94046600  0.94046600  1
  O  O39  1  0.55925800  0.06522900  0.55925800  1
