# generated using pymatgen
data_Ti45Se16
_symmetry_space_group_name_H-M   'P 1'
_cell_length_a   3.46536282
_cell_length_b   16.45968224
_cell_length_c   17.78670870
_cell_angle_alpha   91.56831113
_cell_angle_beta   95.59008319
_cell_angle_gamma   90.00577989
_symmetry_Int_Tables_number   1
_chemical_formula_structural   Ti45Se16
_chemical_formula_sum   'Ti45 Se16'
_cell_volume   1009.32503290
_cell_formula_units_Z   1
loop_
 _symmetry_equiv_pos_site_id
 _symmetry_equiv_pos_as_xyz
  1  'x, y, z'
loop_
 _atom_site_type_symbol
 _atom_site_label
 _atom_site_symmetry_multiplicity
 _atom_site_fract_x
 _atom_site_fract_y
 _atom_site_fract_z
 _atom_site_occupancy
  Ti  Ti0  1  0.27208245  0.34364232  0.54403781  1
  Ti  Ti1  1  0.65862424  0.93246484  0.31500669  1
  Ti  Ti2  1  0.64801057  0.53029273  0.28766832  1
  Ti  Ti3  1  0.62268118  0.33274129  0.24310919  1
  Ti  Ti4  1  0.44085333  0.44065701  0.88093410  1
  Ti  Ti5  1  0.35854843  0.47006775  0.71307844  1
  Ti  Ti6  1  0.38116863  0.66789564  0.75651052  1
  Ti  Ti7  1  0.47338284  0.63172072  0.94226983  1
  Ti  Ti8  1  0.56785121  0.16572499  0.13417490  1
  Ti  Ti9  1  0.96564838  0.95520832  0.92648710  1
  Ti  Ti10  1  0.73343601  0.65796374  0.45605267  1
  Ti  Ti11  1  0.56169173  0.55887240  0.11884156  1
  Ti  Ti12  1  0.69781760  0.09988237  0.40099718  1
  Ti  Ti13  1  0.13437839  0.06622020  0.26846170  1
  Ti  Ti14  1  0.74024582  0.86088249  0.47348600  1
  Ti  Ti15  1  0.30271702  0.90080417  0.59898589  1
  Ti  Ti16  1  0.78208721  0.01970185  0.56196704  1
  Ti  Ti17  1  0.18493823  0.25136513  0.37278780  1
  Ti  Ti18  1  0.78202390  0.48562246  0.55900717  1
  Ti  Ti19  1  0.18394681  0.79553041  0.35979872  1
  Ti  Ti20  1  0.26202829  0.13976656  0.52653305  1
  Ti  Ti21  1  0.99481942  0.79626510  0.98615013  1
  Ti  Ti22  1  0.09235748  0.87505646  0.17863303  1
  Ti  Ti23  1  0.00076908  0.50012145  0.99966856  1
  Ti  Ti24  1  0.89765298  0.33638842  0.79390619  1
  Ti  Ti25  1  0.91276135  0.12526301  0.82108123  1
  Ti  Ti26  1  0.91565776  0.55066426  0.82750374  1
  Ti  Ti27  1  0.08822282  0.44943043  0.17296688  1
  Ti  Ti28  1  0.52320146  0.90882151  0.04239042  1
  Ti  Ti29  1  0.43500217  0.83447522  0.86573770  1
  Ti  Ti30  1  0.52890416  0.36870920  0.05775553  1
  Ti  Ti31  1  0.55473116  0.75387603  0.10471832  1
  Ti  Ti32  1  0.29322074  0.61464875  0.57961417  1
  Ti  Ti33  1  0.10667231  0.66332276  0.20611568  1
  Ti  Ti34  1  0.82145849  0.20570604  0.63997461  1
  Ti  Ti35  1  0.44731496  0.24610968  0.89512617  1
  Ti  Ti36  1  0.00737331  0.20353032  0.01351679  1
  Ti  Ti37  1  0.86831329  0.93469183  0.73016860  1
  Ti  Ti38  1  0.71170567  0.38629011  0.42064917  1
  Ti  Ti39  1  0.22361712  0.51547585  0.44090436  1
  Ti  Ti40  1  0.34497411  0.06876548  0.68385335  1
  Ti  Ti41  1  0.21880901  0.98060729  0.43720024  1
  Ti  Ti42  1  0.48025015  0.09133501  0.95644021  1
  Ti  Ti43  1  0.81795790  0.74944954  0.62774957  1
  Ti  Ti44  1  0.03841671  0.04504182  0.07239453  1
  Se  Se45  1  0.02939475  0.65024129  0.05400546  1
  Se  Se46  1  0.17961600  0.63639447  0.34716998  1
  Se  Se47  1  0.37648074  0.21850207  0.74989097  1
  Se  Se48  1  0.63873572  0.18435181  0.27897857  1
  Se  Se49  1  0.97262284  0.34957989  0.94617202  1
  Se  Se50  1  0.26359886  0.75832344  0.51852086  1
  Se  Se51  1  0.58943658  0.99788134  0.17486081  1
  Se  Se52  1  0.07087272  0.28887291  0.14050705  1
  Se  Se53  1  0.36423863  0.81654458  0.72109601  1
  Se  Se54  1  0.16150540  0.41538087  0.31854402  1
  Se  Se55  1  0.84372025  0.58473389  0.68175218  1
  Se  Se56  1  0.62898140  0.78187873  0.24991884  1
  Se  Se57  1  0.82739399  0.36467983  0.65301163  1
  Se  Se58  1  0.73946300  0.24264599  0.48207272  1
  Se  Se59  1  0.41465545  0.00271337  0.82380707  1
  Se  Se60  1  0.93200880  0.71122752  0.85915296  1
