# generated using pymatgen
data_In4SnSe4
_symmetry_space_group_name_H-M   'P 1'
_cell_length_a   13.01279700
_cell_length_b   13.01279700
_cell_length_c   13.01279700
_cell_angle_alpha   90.00000000
_cell_angle_beta   90.00000000
_cell_angle_gamma   90.00000000
_symmetry_Int_Tables_number   1
_chemical_formula_structural   In4SnSe4
_chemical_formula_sum   'In32 Sn8 Se32'
_cell_volume   2203.49446786
_cell_formula_units_Z   8
loop_
 _symmetry_equiv_pos_site_id
 _symmetry_equiv_pos_as_xyz
  1  'x, y, z'
loop_
 _atom_site_type_symbol
 _atom_site_label
 _atom_site_symmetry_multiplicity
 _atom_site_fract_x
 _atom_site_fract_y
 _atom_site_fract_z
 _atom_site_occupancy
  In  In0  1  0.22683500  0.53187200  0.06821000  1
  In  In1  1  0.43179000  0.77316500  0.03187200  1
  In  In2  1  0.77316500  0.46812800  0.93179000  1
  In  In3  1  0.93179000  0.72683500  0.96812800  1
  In  In4  1  0.77368400  0.22631600  0.72631600  1
  In  In5  1  0.72631600  0.77368400  0.22631600  1
  In  In6  1  0.72683500  0.53187200  0.43179000  1
  In  In7  1  0.03187200  0.43179000  0.77316500  1
  In  In8  1  0.56821000  0.27316500  0.46812800  1
  In  In9  1  0.46812800  0.93179000  0.77316500  1
  In  In10  1  0.27368400  0.27368400  0.27368400  1
  In  In11  1  0.06821000  0.27316500  0.03187200  1
  In  In12  1  0.06821000  0.22683500  0.53187200  1
  In  In13  1  0.27368400  0.22631600  0.77368400  1
  In  In14  1  0.27316500  0.03187200  0.06821000  1
  In  In15  1  0.27316500  0.46812800  0.56821000  1
  In  In16  1  0.46812800  0.56821000  0.27316500  1
  In  In17  1  0.72683500  0.96812800  0.93179000  1
  In  In18  1  0.22683500  0.96812800  0.56821000  1
  In  In19  1  0.22631600  0.72631600  0.77368400  1
  In  In20  1  0.77316500  0.03187200  0.43179000  1
  In  In21  1  0.22631600  0.77368400  0.27368400  1
  In  In22  1  0.77368400  0.27368400  0.22631600  1
  In  In23  1  0.72631600  0.72631600  0.72631600  1
  In  In24  1  0.56821000  0.22683500  0.96812800  1
  In  In25  1  0.93179000  0.77316500  0.46812800  1
  In  In26  1  0.96812800  0.93179000  0.72683500  1
  In  In27  1  0.53187200  0.43179000  0.72683500  1
  In  In28  1  0.03187200  0.06821000  0.27316500  1
  In  In29  1  0.96812800  0.56821000  0.22683500  1
  In  In30  1  0.53187200  0.06821000  0.22683500  1
  In  In31  1  0.43179000  0.72683500  0.53187200  1
  Sn  Sn32  1  0.59889300  0.90110700  0.09889300  1
  Sn  Sn33  1  0.90110700  0.40110700  0.09889300  1
  Sn  Sn34  1  0.09889300  0.59889300  0.90110700  1
  Sn  Sn35  1  0.40110700  0.40110700  0.40110700  1
  Sn  Sn36  1  0.09889300  0.90110700  0.40110700  1
  Sn  Sn37  1  0.90110700  0.09889300  0.59889300  1
  Sn  Sn38  1  0.40110700  0.09889300  0.90110700  1
  Sn  Sn39  1  0.59889300  0.59889300  0.59889300  1
  Se  Se40  1  0.76337200  0.17386600  0.92834100  1
  Se  Se41  1  0.17386600  0.92834100  0.76337200  1
  Se  Se42  1  0.23662800  0.82613400  0.07165900  1
  Se  Se43  1  0.26337200  0.17386600  0.57165900  1
  Se  Se44  1  0.57396400  0.42603600  0.92603600  1
  Se  Se45  1  0.42834100  0.76337200  0.32613400  1
  Se  Se46  1  0.76337200  0.32613400  0.42834100  1
  Se  Se47  1  0.57165900  0.23662800  0.67386600  1
  Se  Se48  1  0.73662800  0.67386600  0.92834100  1
  Se  Se49  1  0.92834100  0.76337200  0.17386600  1
  Se  Se50  1  0.67386600  0.57165900  0.23662800  1
  Se  Se51  1  0.07165900  0.23662800  0.82613400  1
  Se  Se52  1  0.42603600  0.57396400  0.07396400  1
  Se  Se53  1  0.57396400  0.07396400  0.42603600  1
  Se  Se54  1  0.57165900  0.26337200  0.17386600  1
  Se  Se55  1  0.32613400  0.07165900  0.26337200  1
  Se  Se56  1  0.67386600  0.92834100  0.73662800  1
  Se  Se57  1  0.17386600  0.57165900  0.26337200  1
  Se  Se58  1  0.07396400  0.42603600  0.57396400  1
  Se  Se59  1  0.26337200  0.32613400  0.07165900  1
  Se  Se60  1  0.07165900  0.26337200  0.32613400  1
  Se  Se61  1  0.42834100  0.73662800  0.82613400  1
  Se  Se62  1  0.92603600  0.57396400  0.42603600  1
  Se  Se63  1  0.82613400  0.42834100  0.73662800  1
  Se  Se64  1  0.07396400  0.07396400  0.07396400  1
  Se  Se65  1  0.92834100  0.73662800  0.67386600  1
  Se  Se66  1  0.23662800  0.67386600  0.57165900  1
  Se  Se67  1  0.82613400  0.07165900  0.23662800  1
  Se  Se68  1  0.42603600  0.92603600  0.57396400  1
  Se  Se69  1  0.92603600  0.92603600  0.92603600  1
  Se  Se70  1  0.32613400  0.42834100  0.76337200  1
  Se  Se71  1  0.73662800  0.82613400  0.42834100  1
