# generated using pymatgen
data_Gd3P4Pd7
_symmetry_space_group_name_H-M   'P 1'
_cell_length_a   4.03263837
_cell_length_b   8.24390646
_cell_length_c   8.00958283
_cell_angle_alpha   71.35114701
_cell_angle_beta   75.44915860
_cell_angle_gamma   75.81564253
_symmetry_Int_Tables_number   1
_chemical_formula_structural   Gd3P4Pd7
_chemical_formula_sum   'Gd3 P4 Pd7'
_cell_volume   240.23278099
_cell_formula_units_Z   1
loop_
 _symmetry_equiv_pos_site_id
 _symmetry_equiv_pos_as_xyz
  1  'x, y, z'
loop_
 _atom_site_type_symbol
 _atom_site_label
 _atom_site_symmetry_multiplicity
 _atom_site_fract_x
 _atom_site_fract_y
 _atom_site_fract_z
 _atom_site_occupancy
  Gd  Gd0  1  0.31920500  0.67751000  0.68383200  1
  Gd  Gd1  1  0.68062400  0.32263800  0.31626000  1
  Gd  Gd2  1  0.00000900  0.99990900  0.00006400  1
  P  P3  1  0.65937600  0.74605900  0.93574000  1
  P  P4  1  0.34077500  0.25407400  0.06419600  1
  P  P5  1  0.89412400  0.82047700  0.39105000  1
  P  P6  1  0.10573300  0.17936600  0.60913200  1
  Pd  Pd7  1  0.30505100  0.02937000  0.36038300  1
  Pd  Pd8  1  0.49052600  0.28352400  0.73527000  1
  Pd  Pd9  1  0.83189400  0.42181200  0.91444700  1
  Pd  Pd10  1  0.69485500  0.97091200  0.63927700  1
  Pd  Pd11  1  0.16836400  0.57795300  0.08563900  1
  Pd  Pd12  1  0.00012000  0.49989000  0.49986900  1
  Pd  Pd13  1  0.50934400  0.71650600  0.26484200  1
