# generated using pymatgen
data_Ce21Fe8Bi7C12
_symmetry_space_group_name_H-M   'P 1'
_cell_length_a   11.39685382
_cell_length_b   11.39814892
_cell_length_c   11.39651752
_cell_angle_alpha   59.98475127
_cell_angle_beta   60.02115610
_cell_angle_gamma   60.02184522
_symmetry_Int_Tables_number   1
_chemical_formula_structural   Ce21Fe8Bi7C12
_chemical_formula_sum   'Ce21 Fe8 Bi7 C12'
_cell_volume   1047.05000857
_cell_formula_units_Z   1
loop_
 _symmetry_equiv_pos_site_id
 _symmetry_equiv_pos_as_xyz
  1  'x, y, z'
loop_
 _atom_site_type_symbol
 _atom_site_label
 _atom_site_symmetry_multiplicity
 _atom_site_fract_x
 _atom_site_fract_y
 _atom_site_fract_z
 _atom_site_occupancy
  Ce  Ce0  1  0.00001400  0.34285100  0.65714200  1
  Ce  Ce1  1  0.34284600  0.00000300  0.99999900  1
  Ce  Ce2  1  0.00000300  0.99998800  0.65718100  1
  Ce  Ce3  1  0.08373300  0.63875700  0.63878200  1
  Ce  Ce4  1  0.34278600  0.65719800  0.00000200  1
  Ce  Ce5  1  0.00000800  0.34280000  0.00002500  1
  Ce  Ce6  1  0.36132900  0.36116000  0.36110100  1
  Ce  Ce7  1  0.36136100  0.36124000  0.91624200  1
  Ce  Ce8  1  0.00001300  0.65713300  0.00001200  1
  Ce  Ce9  1  0.99999800  0.65722200  0.34274500  1
  Ce  Ce10  1  0.65714100  0.34268400  0.00011300  1
  Ce  Ce11  1  0.65722300  0.00006700  0.34261700  1
  Ce  Ce12  1  0.65719600  0.00005700  0.00009900  1
  Ce  Ce13  1  0.99998600  0.00003800  0.34280600  1
  Ce  Ce14  1  0.36137200  0.91629300  0.36119900  1
  Ce  Ce15  1  0.63869100  0.08369400  0.63880400  1
  Ce  Ce16  1  0.91634200  0.36122900  0.36120100  1
  Ce  Ce17  1  0.34284900  0.99996200  0.65717400  1
  Ce  Ce18  1  0.63864800  0.63883900  0.63883300  1
  Ce  Ce19  1  0.63857400  0.63868000  0.08402700  1
  Ce  Ce20  1  0.49997100  0.50013400  0.49978400  1
  Fe  Fe21  1  0.19373200  0.41880700  0.19374200  1
  Fe  Fe22  1  0.80620000  0.80626300  0.58127600  1
  Fe  Fe23  1  0.58116400  0.80626500  0.80629000  1
  Fe  Fe24  1  0.41886100  0.19369000  0.19375100  1
  Fe  Fe25  1  0.80624700  0.80627200  0.80626000  1
  Fe  Fe26  1  0.19375400  0.19374000  0.19378300  1
  Fe  Fe27  1  0.19375400  0.19371000  0.41874600  1
  Fe  Fe28  1  0.80621200  0.58124600  0.80629200  1
  Bi  Bi29  1  0.70791000  0.70806300  0.29201700  1
  Bi  Bi30  1  0.70791700  0.29200500  0.70806400  1
  Bi  Bi31  1  0.29205400  0.29200800  0.70798100  1
  Bi  Bi32  1  0.29206000  0.70796300  0.29196000  1
  Bi  Bi33  1  0.29205800  0.70797900  0.70799300  1
  Bi  Bi34  1  0.70792100  0.29202200  0.29199400  1
  Bi  Bi35  1  0.99998200  0.99998000  0.00003700  1
  C  C36  1  0.60410700  0.60415300  0.89592200  1
  C  C37  1  0.89578300  0.60418400  0.89582100  1
  C  C38  1  0.39582000  0.10417000  0.39576300  1
  C  C39  1  0.10420600  0.39577200  0.10421000  1
  C  C40  1  0.10426800  0.10425300  0.39574200  1
  C  C41  1  0.60420000  0.89584900  0.60413900  1
  C  C42  1  0.89577200  0.60429600  0.60422600  1
  C  C43  1  0.60418300  0.89580900  0.89587200  1
  C  C44  1  0.89577500  0.89575000  0.60422100  1
  C  C45  1  0.39584800  0.39583900  0.10413000  1
  C  C46  1  0.10425700  0.39571400  0.39569600  1
  C  C47  1  0.39586800  0.10416700  0.10418200  1
