# generated using pymatgen
data_Rb2Gd4Cu4S9
_symmetry_space_group_name_H-M   'P 1'
_cell_length_a   4.00114644
_cell_length_b   7.27086288
_cell_length_c   15.51290971
_cell_angle_alpha   81.94912181
_cell_angle_beta   82.56916501
_cell_angle_gamma   74.11159584
_symmetry_Int_Tables_number   1
_chemical_formula_structural   Rb2Gd4Cu4S9
_chemical_formula_sum   'Rb2 Gd4 Cu4 S9'
_cell_volume   427.81303662
_cell_formula_units_Z   1
loop_
 _symmetry_equiv_pos_site_id
 _symmetry_equiv_pos_as_xyz
  1  'x, y, z'
loop_
 _atom_site_type_symbol
 _atom_site_label
 _atom_site_symmetry_multiplicity
 _atom_site_fract_x
 _atom_site_fract_y
 _atom_site_fract_z
 _atom_site_occupancy
  Rb  Rb0  1  0.97887400  0.28550700  0.76899300  1
  Rb  Rb1  1  0.02263900  0.71305700  0.23089000  1
  Gd  Gd2  1  0.34519800  0.25477500  0.05311200  1
  Gd  Gd3  1  0.22957200  0.14022300  0.39601300  1
  Gd  Gd4  1  0.76466600  0.85992600  0.60329400  1
  Gd  Gd5  1  0.65309900  0.74565200  0.94631700  1
  Cu  Cu6  1  0.42672600  0.67402300  0.45932600  1
  Cu  Cu7  1  0.75130500  0.26622400  0.22673600  1
  Cu  Cu8  1  0.25146900  0.73191700  0.77227300  1
  Cu  Cu9  1  0.56474900  0.32136100  0.54330600  1
  S  S10  1  0.60658500  0.40879900  0.37529100  1
  S  S11  1  0.38809500  0.59196800  0.62346300  1
  S  S12  1  0.70133700  0.49283300  0.10084300  1
  S  S13  1  0.29678800  0.50761300  0.89826700  1
  S  S14  1  0.33954500  0.09481200  0.22255300  1
  S  S15  1  0.66382300  0.90345400  0.77664000  1
  S  S16  1  0.99985100  0.00146300  0.99892700  1
  S  S17  1  0.85774600  0.84958100  0.42583100  1
  S  S18  1  0.13524800  0.15064200  0.57362500  1
