# generated using pymatgen
data_Pr4In21Pd10
_symmetry_space_group_name_H-M   'P 1'
_cell_length_a   11.98043067
_cell_length_b   11.98043067
_cell_length_c   17.52906546
_cell_angle_alpha   56.23828586
_cell_angle_beta   56.23828586
_cell_angle_gamma   21.92696469
_symmetry_Int_Tables_number   1
_chemical_formula_structural   Pr4In21Pd10
_chemical_formula_sum   'Pr4 In21 Pd10'
_cell_volume   774.49939382
_cell_formula_units_Z   1
loop_
 _symmetry_equiv_pos_site_id
 _symmetry_equiv_pos_as_xyz
  1  'x, y, z'
loop_
 _atom_site_type_symbol
 _atom_site_label
 _atom_site_symmetry_multiplicity
 _atom_site_fract_x
 _atom_site_fract_y
 _atom_site_fract_z
 _atom_site_occupancy
  Pr  Pr0  1  0.77100700  0.77100700  0.32466500  1
  Pr  Pr1  1  0.87786900  0.87786900  0.83297300  1
  Pr  Pr2  1  0.12213100  0.12213100  0.16702700  1
  Pr  Pr3  1  0.22899300  0.22899300  0.67533500  1
  In  In4  1  0.00952700  0.00952700  0.40754500  1
  In  In5  1  0.61555800  0.61555800  0.79608500  1
  In  In6  1  0.79946900  0.79946900  0.50354600  1
  In  In7  1  0.54260300  0.54260300  0.13156400  1
  In  In8  1  0.60140200  0.60140200  0.50331400  1
  In  In9  1  0.29957500  0.29957500  0.00049000  1
  In  In10  1  0.93574000  0.93574000  0.29748000  1
  In  In11  1  0.25266200  0.25266200  0.20374100  1
  In  In12  1  0.20053100  0.20053100  0.49645400  1
  In  In13  1  0.88600800  0.88600800  0.04892700  1
  In  In14  1  0.06426000  0.06426000  0.70252000  1
  In  In15  1  0.11399200  0.11399200  0.95107300  1
  In  In16  1  0.63075800  0.63075800  0.30071100  1
  In  In17  1  0.36924200  0.36924200  0.69928900  1
  In  In18  1  0.50000000  0.50000000  0.00000000  1
  In  In19  1  0.74733800  0.74733800  0.79625900  1
  In  In20  1  0.38444200  0.38444200  0.20391500  1
  In  In21  1  0.99047300  0.99047300  0.59245500  1
  In  In22  1  0.70042500  0.70042500  0.99951000  1
  In  In23  1  0.45739700  0.45739700  0.86843600  1
  In  In24  1  0.39859800  0.39859800  0.49668600  1
  Pd  Pd25  1  0.24986100  0.24986100  0.88519300  1
  Pd  Pd26  1  0.65385700  0.65385700  0.61328400  1
  Pd  Pd27  1  0.13726400  0.13726400  0.39240700  1
  Pd  Pd28  1  0.75013900  0.75013900  0.11480700  1
  Pd  Pd29  1  0.34614300  0.34614300  0.38671600  1
  Pd  Pd30  1  0.86273600  0.86273600  0.60759300  1
  Pd  Pd31  1  0.49465400  0.49465400  0.68843000  1
  Pd  Pd32  1  0.97436300  0.97436300  0.11253300  1
  Pd  Pd33  1  0.50534600  0.50534600  0.31157000  1
  Pd  Pd34  1  0.02563700  0.02563700  0.88746700  1
