# generated using pymatgen
data_Tm4Zr3O12
_symmetry_space_group_name_H-M   'P 1'
_cell_length_a   6.37608600
_cell_length_b   6.40383150
_cell_length_c   12.78025458
_cell_angle_alpha   99.14360126
_cell_angle_beta   99.40036636
_cell_angle_gamma   99.35116802
_symmetry_Int_Tables_number   1
_chemical_formula_structural   Tm4Zr3O12
_chemical_formula_sum   'Tm8 Zr6 O24'
_cell_volume   498.68314226
_cell_formula_units_Z   2
loop_
 _symmetry_equiv_pos_site_id
 _symmetry_equiv_pos_as_xyz
  1  'x, y, z'
loop_
 _atom_site_type_symbol
 _atom_site_label
 _atom_site_symmetry_multiplicity
 _atom_site_fract_x
 _atom_site_fract_y
 _atom_site_fract_z
 _atom_site_occupancy
  Tm  Tm0  1  0.39044700  0.86253200  0.09652400  1
  Tm  Tm1  1  0.31251800  0.60905800  0.81918400  1
  Tm  Tm2  1  0.30224800  0.61033600  0.31928200  1
  Tm  Tm3  1  0.85966300  0.68977500  0.44618100  1
  Tm  Tm4  1  0.68748200  0.39094200  0.18081600  1
  Tm  Tm5  1  0.14033700  0.31022500  0.55381900  1
  Tm  Tm6  1  0.60955300  0.13746800  0.90347600  1
  Tm  Tm7  1  0.69775200  0.38966400  0.68071800  1
  Zr  Zr8  1  0.99362500  0.99385500  0.24805700  1
  Zr  Zr9  1  0.38988300  0.85704000  0.59401800  1
  Zr  Zr10  1  0.00637500  0.00614500  0.75194300  1
  Zr  Zr11  1  0.85673900  0.68131100  0.94512800  1
  Zr  Zr12  1  0.14326100  0.31868900  0.05487200  1
  Zr  Zr13  1  0.61011700  0.14296000  0.40598200  1
  O  O14  1  0.32079500  0.94294600  0.78734500  1
  O  O15  1  0.04267200  0.90421800  0.08834600  1
  O  O16  1  0.31953200  0.95703500  0.29558800  1
  O  O17  1  0.07130700  0.91995500  0.59240600  1
  O  O18  1  0.58632100  0.81958100  0.96280800  1
  O  O19  1  0.92191900  0.68850600  0.78837500  1
  O  O20  1  0.17443600  0.57526400  0.96543800  1
  O  O21  1  0.56985700  0.82822300  0.46310700  1
  O  O22  1  0.40887000  0.56690600  0.15852700  1
  O  O23  1  0.92261200  0.68025900  0.27783300  1
  O  O24  1  0.59113000  0.43309400  0.84147300  1
  O  O25  1  0.18388300  0.59074000  0.46826400  1
  O  O26  1  0.82556400  0.42473600  0.03456200  1
  O  O27  1  0.42505000  0.58145300  0.65878400  1
  O  O28  1  0.07808100  0.31149400  0.21162500  1
  O  O29  1  0.57495000  0.41854700  0.34121600  1
  O  O30  1  0.41367900  0.18041900  0.03719200  1
  O  O31  1  0.81611700  0.40926000  0.53173600  1
  O  O32  1  0.07738800  0.31974100  0.72216700  1
  O  O33  1  0.43014300  0.17177700  0.53689300  1
  O  O34  1  0.95732800  0.09578200  0.91165400  1
  O  O35  1  0.67920500  0.05705400  0.21265500  1
  O  O36  1  0.92869300  0.08004500  0.40759400  1
  O  O37  1  0.68046800  0.04296500  0.70441200  1
