# generated using pymatgen
data_Sr2Co2O5
_symmetry_space_group_name_H-M   'P 1'
_cell_length_a   5.42790800
_cell_length_b   5.53875300
_cell_length_c   16.28215000
_cell_angle_alpha   90.00000000
_cell_angle_beta   90.00000000
_cell_angle_gamma   90.00000000
_symmetry_Int_Tables_number   1
_chemical_formula_structural   Sr2Co2O5
_chemical_formula_sum   'Sr8 Co8 O20'
_cell_volume   489.50398044
_cell_formula_units_Z   4
loop_
 _symmetry_equiv_pos_site_id
 _symmetry_equiv_pos_as_xyz
  1  'x, y, z'
loop_
 _atom_site_type_symbol
 _atom_site_label
 _atom_site_symmetry_multiplicity
 _atom_site_fract_x
 _atom_site_fract_y
 _atom_site_fract_z
 _atom_site_occupancy
  Sr  Sr0  1  0.00114400  0.50888500  0.88972100  1
  Sr  Sr1  1  0.50114400  0.99111500  0.61027900  1
  Sr  Sr2  1  0.49885600  0.00888500  0.11027900  1
  Sr  Sr3  1  0.00114400  0.50888500  0.61027900  1
  Sr  Sr4  1  0.49885600  0.00888500  0.38972100  1
  Sr  Sr5  1  0.50114400  0.99111500  0.88972100  1
  Sr  Sr6  1  0.99885600  0.49111500  0.38972100  1
  Sr  Sr7  1  0.99885600  0.49111500  0.11027900  1
  Co  Co8  1  0.02877400  0.93937900  0.25000000  1
  Co  Co9  1  0.47122600  0.43937900  0.75000000  1
  Co  Co10  1  0.97122600  0.06062100  0.75000000  1
  Co  Co11  1  0.52877400  0.56062100  0.25000000  1
  Co  Co12  1  0.50000000  0.50000000  0.50000000  1
  Co  Co13  1  0.00000000  0.00000000  0.00000000  1
  Co  Co14  1  0.50000000  0.50000000  0.00000000  1
  Co  Co15  1  0.00000000  0.00000000  0.50000000  1
  O  O16  1  0.62083800  0.12438900  0.75000000  1
  O  O17  1  0.74884200  0.75125700  0.49552900  1
  O  O18  1  0.98360600  0.03731800  0.35500000  1
  O  O19  1  0.87916200  0.62438900  0.25000000  1
  O  O20  1  0.01639400  0.96268200  0.64500000  1
  O  O21  1  0.37916200  0.87561100  0.25000000  1
  O  O22  1  0.48360600  0.46268200  0.14500000  1
  O  O23  1  0.01639400  0.96268200  0.85500000  1
  O  O24  1  0.12083800  0.37561100  0.75000000  1
  O  O25  1  0.51639400  0.53731800  0.85500000  1
  O  O26  1  0.48360600  0.46268200  0.35500000  1
  O  O27  1  0.51639400  0.53731800  0.64500000  1
  O  O28  1  0.75115800  0.25125700  0.99552900  1
  O  O29  1  0.24884200  0.74874300  0.00447100  1
  O  O30  1  0.25115800  0.24874300  0.99552900  1
  O  O31  1  0.98360600  0.03731800  0.14500000  1
  O  O32  1  0.25115800  0.24874300  0.50447100  1
  O  O33  1  0.74884200  0.75125700  0.00447100  1
  O  O34  1  0.75115800  0.25125700  0.50447100  1
  O  O35  1  0.24884200  0.74874300  0.49552900  1
