# generated using pymatgen
data_Be3Fe4Si3SO12
_symmetry_space_group_name_H-M   'P 1'
_cell_length_a   8.30618098
_cell_length_b   8.30618098
_cell_length_c   8.30618022
_cell_angle_alpha   89.55949869
_cell_angle_beta   89.55949869
_cell_angle_gamma   89.55950280
_symmetry_Int_Tables_number   1
_chemical_formula_structural   Be3Fe4Si3SO12
_chemical_formula_sum   'Be6 Fe8 Si6 S2 O24'
_cell_volume   573.01477215
_cell_formula_units_Z   2
loop_
 _symmetry_equiv_pos_site_id
 _symmetry_equiv_pos_as_xyz
  1  'x, y, z'
loop_
 _atom_site_type_symbol
 _atom_site_label
 _atom_site_symmetry_multiplicity
 _atom_site_fract_x
 _atom_site_fract_y
 _atom_site_fract_z
 _atom_site_occupancy
  Be  Be0  1  0.75132300  0.50038700  0.00217800  1
  Be  Be1  1  0.50038700  0.00217800  0.75132300  1
  Be  Be2  1  0.50217800  0.00038700  0.25132300  1
  Be  Be3  1  0.00038700  0.25132300  0.50217800  1
  Be  Be4  1  0.00217800  0.75132300  0.50038700  1
  Be  Be5  1  0.25132300  0.50217800  0.00038700  1
  Fe  Fe6  1  0.67008200  0.66731700  0.33040200  1
  Fe  Fe7  1  0.33108600  0.33108600  0.33108600  1
  Fe  Fe8  1  0.17008200  0.83040200  0.16731700  1
  Fe  Fe9  1  0.83108600  0.83108600  0.83108600  1
  Fe  Fe10  1  0.16731700  0.17008200  0.83040200  1
  Fe  Fe11  1  0.33040200  0.67008200  0.66731700  1
  Fe  Fe12  1  0.83040200  0.16731700  0.17008200  1
  Fe  Fe13  1  0.66731700  0.33040200  0.67008200  1
  Si  Si14  1  0.25290200  0.99714500  0.50344700  1
  Si  Si15  1  0.49714500  0.75290200  0.00344700  1
  Si  Si16  1  0.50344700  0.25290200  0.99714500  1
  Si  Si17  1  0.75290200  0.00344700  0.49714500  1
  Si  Si18  1  0.99714500  0.50344700  0.25290200  1
  Si  Si19  1  0.00344700  0.49714500  0.75290200  1
  S  S20  1  0.00021200  0.00021200  0.00021200  1
  S  S21  1  0.50021200  0.50021200  0.50021200  1
  O  O22  1  0.14539200  0.41463200  0.86196300  1
  O  O23  1  0.14030600  0.58762800  0.14147900  1
  O  O24  1  0.58865100  0.86437900  0.86465600  1
  O  O25  1  0.41463200  0.86196300  0.14539200  1
  O  O26  1  0.14709300  0.85647300  0.41580200  1
  O  O27  1  0.86196300  0.14539200  0.41463200  1
  O  O28  1  0.64539200  0.36196300  0.91463200  1
  O  O29  1  0.85647300  0.41580200  0.14709300  1
  O  O30  1  0.86465600  0.58865100  0.86437900  1
  O  O31  1  0.41580200  0.14709300  0.85647300  1
  O  O32  1  0.58762800  0.14147900  0.14030600  1
  O  O33  1  0.14147900  0.14030600  0.58762800  1
  O  O34  1  0.86437900  0.86465600  0.58865100  1
  O  O35  1  0.08865100  0.36465600  0.36437900  1
  O  O36  1  0.64709300  0.91580200  0.35647300  1
  O  O37  1  0.36437900  0.08865100  0.36465600  1
  O  O38  1  0.08762800  0.64030600  0.64147900  1
  O  O39  1  0.36196300  0.91463200  0.64539200  1
  O  O40  1  0.91463200  0.64539200  0.36196300  1
  O  O41  1  0.91580200  0.35647300  0.64709300  1
  O  O42  1  0.64147900  0.08762800  0.64030600  1
  O  O43  1  0.64030600  0.64147900  0.08762800  1
  O  O44  1  0.36465600  0.36437900  0.08865100  1
  O  O45  1  0.35647300  0.64709300  0.91580200  1
