# generated using pymatgen
data_U(HO)8
_symmetry_space_group_name_H-M   'P 1'
_cell_length_a   7.86909313
_cell_length_b   7.86909313
_cell_length_c   8.58623795
_cell_angle_alpha   60.86418443
_cell_angle_beta   60.86418443
_cell_angle_gamma   51.51247872
_symmetry_Int_Tables_number   1
_chemical_formula_structural   U(HO)8
_chemical_formula_sum   'U2 H16 O16'
_cell_volume   350.11938571
_cell_formula_units_Z   2
loop_
 _symmetry_equiv_pos_site_id
 _symmetry_equiv_pos_as_xyz
  1  'x, y, z'
loop_
 _atom_site_type_symbol
 _atom_site_label
 _atom_site_symmetry_multiplicity
 _atom_site_fract_x
 _atom_site_fract_y
 _atom_site_fract_z
 _atom_site_occupancy
  U  U0  1  0.00000000  0.00000000  0.50000000  1
  U  U1  1  0.00000000  0.00000000  0.00000000  1
  H  H2  1  0.77281300  0.72129200  0.82141700  1
  H  H3  1  0.27870800  0.22718700  0.67858300  1
  H  H4  1  0.22718700  0.27870800  0.17858300  1
  H  H5  1  0.72129200  0.77281300  0.32141700  1
  H  H6  1  0.74692700  0.74655400  0.63546200  1
  H  H7  1  0.25344600  0.25307300  0.86453800  1
  H  H8  1  0.25307300  0.25344600  0.36453800  1
  H  H9  1  0.74655400  0.74692700  0.13546200  1
  H  H10  1  0.67317800  0.53517000  0.57118200  1
  H  H11  1  0.46483000  0.32682200  0.92881800  1
  H  H12  1  0.32682200  0.46483000  0.42881800  1
  H  H13  1  0.53517000  0.67317800  0.07118200  1
  H  H14  1  0.46094500  0.77289900  0.60145000  1
  H  H15  1  0.22710100  0.53905500  0.89855000  1
  H  H16  1  0.53905500  0.22710100  0.39855000  1
  H  H17  1  0.77289900  0.46094500  0.10145000  1
  O  O18  1  0.05241100  0.82558800  0.80561800  1
  O  O19  1  0.17441200  0.94758900  0.69438200  1
  O  O20  1  0.94758900  0.17441200  0.19438200  1
  O  O21  1  0.82558800  0.05241100  0.30561800  1
  O  O22  1  0.75007200  0.25543700  0.56675400  1
  O  O23  1  0.74456300  0.24992800  0.93324600  1
  O  O24  1  0.24992800  0.74456300  0.43324600  1
  O  O25  1  0.25543700  0.75007200  0.06675400  1
  O  O26  1  0.80132800  0.79129400  0.68361500  1
  O  O27  1  0.20870600  0.19867200  0.81638500  1
  O  O28  1  0.19867200  0.20870600  0.31638500  1
  O  O29  1  0.79129400  0.80132800  0.18361500  1
  O  O30  1  0.62791900  0.69193800  0.54991100  1
  O  O31  1  0.30806200  0.37208100  0.95008900  1
  O  O32  1  0.37208100  0.30806200  0.45008900  1
  O  O33  1  0.69193800  0.62791900  0.04991100  1
