# generated using pymatgen
data_Eu8C4I9N7
_symmetry_space_group_name_H-M   'P 1'
_cell_length_a   10.61885732
_cell_length_b   10.61885732
_cell_length_c   7.79692000
_cell_angle_alpha   90.00000000
_cell_angle_beta   90.00000000
_cell_angle_gamma   119.99999575
_symmetry_Int_Tables_number   1
_chemical_formula_structural   Eu8C4I9N7
_chemical_formula_sum   'Eu8 C4 I9 N7'
_cell_volume   761.39373545
_cell_formula_units_Z   1
loop_
 _symmetry_equiv_pos_site_id
 _symmetry_equiv_pos_as_xyz
  1  'x, y, z'
loop_
 _atom_site_type_symbol
 _atom_site_label
 _atom_site_symmetry_multiplicity
 _atom_site_fract_x
 _atom_site_fract_y
 _atom_site_fract_z
 _atom_site_occupancy
  Eu  Eu0  1  0.46557400  0.93114800  0.14050100  1
  Eu  Eu1  1  0.27142500  0.13571300  0.61071200  1
  Eu  Eu2  1  0.46557400  0.53442600  0.14050100  1
  Eu  Eu3  1  0.33333300  0.66666700  0.53493200  1
  Eu  Eu4  1  0.00000000  0.00000000  0.21187900  1
  Eu  Eu5  1  0.86428700  0.72857500  0.61071200  1
  Eu  Eu6  1  0.06885200  0.53442600  0.14050100  1
  Eu  Eu7  1  0.86428700  0.13571300  0.61071200  1
  C  C8  1  0.33333300  0.66666700  0.86242400  1
  C  C9  1  0.66838700  0.83419400  0.38424100  1
  C  C10  1  0.16580600  0.83419400  0.38424100  1
  C  C11  1  0.16580600  0.33161300  0.38424100  1
  I  I12  1  0.51783200  0.03566400  0.67265100  1
  I  I13  1  0.51783200  0.48216800  0.67265100  1
  I  I14  1  0.73834100  0.86917000  0.91022800  1
  I  I15  1  0.79685400  0.59370900  0.21523100  1
  I  I16  1  0.13083000  0.86917000  0.91022800  1
  I  I17  1  0.96433600  0.48216800  0.67265100  1
  I  I18  1  0.40629100  0.20314600  0.21523100  1
  I  I19  1  0.79685400  0.20314600  0.21523100  1
  I  I20  1  0.13083000  0.26165900  0.91022800  1
  N  N21  1  0.10318000  0.89682000  0.44307800  1
  N  N22  1  0.33333300  0.66666700  0.01474900  1
  N  N23  1  0.79364000  0.89682000  0.44307800  1
  N  N24  1  0.22838800  0.45677600  0.32483000  1
  N  N25  1  0.22838800  0.77161200  0.32483000  1
  N  N26  1  0.10318000  0.20636000  0.44307800  1
  N  N27  1  0.54322400  0.77161200  0.32483000  1
