# generated using pymatgen
data_NbBr3O
_symmetry_space_group_name_H-M   'P 1'
_cell_length_a   11.93270000
_cell_length_b   11.93270000
_cell_length_c   4.00131200
_cell_angle_alpha   90.00000000
_cell_angle_beta   90.00000000
_cell_angle_gamma   90.00000000
_symmetry_Int_Tables_number   1
_chemical_formula_structural   NbBr3O
_chemical_formula_sum   'Nb4 Br12 O4'
_cell_volume   569.74413196
_cell_formula_units_Z   4
loop_
 _symmetry_equiv_pos_site_id
 _symmetry_equiv_pos_as_xyz
  1  'x, y, z'
loop_
 _atom_site_type_symbol
 _atom_site_label
 _atom_site_symmetry_multiplicity
 _atom_site_fract_x
 _atom_site_fract_y
 _atom_site_fract_z
 _atom_site_occupancy
  Nb  Nb0  1  0.12618800  0.37381200  0.19578500  1
  Nb  Nb1  1  0.87381200  0.62618800  0.19578500  1
  Nb  Nb2  1  0.37381200  0.87381200  0.80421500  1
  Nb  Nb3  1  0.62618800  0.12618800  0.80421500  1
  Br  Br4  1  0.60142500  0.89857500  0.74489700  1
  Br  Br5  1  0.89857500  0.39857500  0.25510300  1
  Br  Br6  1  0.39857500  0.10142500  0.74489700  1
  Br  Br7  1  0.83070400  0.10463800  0.74466300  1
  Br  Br8  1  0.10142500  0.60142500  0.25510300  1
  Br  Br9  1  0.89536200  0.83070400  0.25533700  1
  Br  Br10  1  0.16929600  0.89536200  0.74466300  1
  Br  Br11  1  0.39536200  0.66929600  0.74466300  1
  Br  Br12  1  0.66929600  0.60463800  0.25533700  1
  Br  Br13  1  0.10463800  0.16929600  0.25533700  1
  Br  Br14  1  0.33070400  0.39536200  0.25533700  1
  Br  Br15  1  0.60463800  0.33070400  0.74466300  1
  O  O16  1  0.88037200  0.61962800  0.74703500  1
  O  O17  1  0.61962800  0.11962800  0.25296500  1
  O  O18  1  0.11962800  0.38037200  0.74703500  1
  O  O19  1  0.38037200  0.88037200  0.25296500  1
