# generated using pymatgen
data_Sm10Pd21
_symmetry_space_group_name_H-M   'P 1'
_cell_length_a   5.85822655
_cell_length_b   12.93272289
_cell_length_c   16.74888025
_cell_angle_alpha   90.76199536
_cell_angle_beta   90.01206884
_cell_angle_gamma   103.08606574
_symmetry_Int_Tables_number   1
_chemical_formula_structural   Sm10Pd21
_chemical_formula_sum   'Sm20 Pd42'
_cell_volume   1235.87325341
_cell_formula_units_Z   2
loop_
 _symmetry_equiv_pos_site_id
 _symmetry_equiv_pos_as_xyz
  1  'x, y, z'
loop_
 _atom_site_type_symbol
 _atom_site_label
 _atom_site_symmetry_multiplicity
 _atom_site_fract_x
 _atom_site_fract_y
 _atom_site_fract_z
 _atom_site_occupancy
  Sm  Sm0  1  0.53421131  0.06739448  0.27984908  1
  Sm  Sm1  1  0.31449155  0.62826516  0.19845004  1
  Sm  Sm2  1  0.46923458  0.93216511  0.72007285  1
  Sm  Sm3  1  0.42988264  0.85772011  0.01901189  1
  Sm  Sm4  1  0.72203514  0.44810783  0.07905920  1
  Sm  Sm5  1  0.23581699  0.47328377  0.64827518  1
  Sm  Sm6  1  0.27408943  0.55233676  0.92147025  1
  Sm  Sm7  1  0.14269987  0.28769846  0.35578121  1
  Sm  Sm8  1  0.64689659  0.29689457  0.51962460  1
  Sm  Sm9  1  0.88211293  0.76267747  0.86976736  1
  Sm  Sm10  1  0.04373627  0.08421194  0.59420964  1
  Sm  Sm11  1  0.34933783  0.70287911  0.48114239  1
  Sm  Sm12  1  0.92561086  0.85155980  0.18656163  1
  Sm  Sm13  1  0.57124050  0.14305517  0.98078440  1
  Sm  Sm14  1  0.07263895  0.14759676  0.81331609  1
  Sm  Sm15  1  0.95791488  0.91534072  0.40602476  1
  Sm  Sm16  1  0.11884439  0.23761681  0.13094691  1
  Sm  Sm17  1  0.76151644  0.52496096  0.35249582  1
  Sm  Sm18  1  0.68687343  0.37147796  0.80306341  1
  Sm  Sm19  1  0.85404907  0.71225498  0.64444041  1
  Pd  Pd20  1  0.06855981  0.66928650  0.04663109  1
  Pd  Pd21  1  0.14898988  0.30175756  0.52473216  1
  Pd  Pd22  1  0.38412172  0.76703893  0.83902387  1
  Pd  Pd23  1  0.03792063  0.07438768  0.27245624  1
  Pd  Pd24  1  0.31241811  0.11235282  0.43989543  1
  Pd  Pd25  1  0.63966776  0.28126237  0.33685559  1
  Pd  Pd26  1  0.61585892  0.23226259  0.16088459  1
  Pd  Pd27  1  0.73785157  0.47743802  0.64504909  1
  Pd  Pd28  1  0.96572947  0.92512459  0.72833113  1
  Pd  Pd29  1  0.37791905  0.25502253  0.67684409  1
  Pd  Pd30  1  0.25976267  0.52206068  0.35618645  1
  Pd  Pd31  1  0.05981502  0.12012061  0.98299442  1
  Pd  Pd32  1  0.81315575  0.62468238  0.19701960  1
  Pd  Pd33  1  0.84623481  0.69735733  0.47541792  1
  Pd  Pd34  1  0.76720418  0.53982032  0.92163511  1
  Pd  Pd35  1  0.27225713  0.03198435  0.11644959  1
  Pd  Pd36  1  0.59972539  0.66945087  0.04722074  1
  Pd  Pd37  1  0.44721972  0.40603253  0.22735567  1
  Pd  Pd38  1  0.35605240  0.71769820  0.66381317  1
  Pd  Pd39  1  0.76278206  0.03228971  0.11730273  1
  Pd  Pd40  1  0.56644207  0.13510213  0.79112342  1
  Pd  Pd41  1  0.54552178  0.08804383  0.59195417  1
  Pd  Pd42  1  0.18835154  0.37401278  0.80387408  1
  Pd  Pd43  1  0.87633843  0.25496643  0.67671094  1
  Pd  Pd44  1  0.24022591  0.96829727  0.88297623  1
  Pd  Pd45  1  0.99805621  0.50005634  0.50068047  1
  Pd  Pd46  1  0.20132429  0.88757441  0.55987906  1
  Pd  Pd47  1  0.62160788  0.74401608  0.32376033  1
  Pd  Pd48  1  0.95576939  0.40622954  0.22714343  1
  Pd  Pd49  1  0.39929701  0.33205038  0.95422762  1
  Pd  Pd50  1  0.22917844  0.46212279  0.07947745  1
  Pd  Pd51  1  0.94259105  0.88253606  0.01706125  1
  Pd  Pd52  1  0.43169746  0.86436956  0.20911125  1
  Pd  Pd53  1  0.12212425  0.74418745  0.32381352  1
  Pd  Pd54  1  0.45600066  0.91107692  0.40724140  1
  Pd  Pd55  1  0.80021948  0.11253608  0.44006951  1
  Pd  Pd56  1  0.93067134  0.33206648  0.95415802  1
  Pd  Pd57  1  0.73021807  0.96804207  0.88333018  1
  Pd  Pd58  1  0.49799734  0.49960858  0.50045208  1
  Pd  Pd59  1  0.04054745  0.59294631  0.77325650  1
  Pd  Pd60  1  0.54962835  0.59305777  0.77317685  1
  Pd  Pd61  1  0.68863490  0.88742725  0.55963647  1
