# generated using pymatgen
data_La3GaGe5O16
_symmetry_space_group_name_H-M   'P 1'
_cell_length_a   4.88895800
_cell_length_b   8.21302788
_cell_length_c   15.86603200
_cell_angle_alpha   90.74481896
_cell_angle_beta   94.27823965
_cell_angle_gamma   89.96125415
_symmetry_Int_Tables_number   1
_chemical_formula_structural   La3GaGe5O16
_chemical_formula_sum   'La6 Ga2 Ge10 O32'
_cell_volume   635.24225635
_cell_formula_units_Z   2
loop_
 _symmetry_equiv_pos_site_id
 _symmetry_equiv_pos_as_xyz
  1  'x, y, z'
loop_
 _atom_site_type_symbol
 _atom_site_label
 _atom_site_symmetry_multiplicity
 _atom_site_fract_x
 _atom_site_fract_y
 _atom_site_fract_z
 _atom_site_occupancy
  La  La0  1  0.02227400  0.13470700  0.24948200  1
  La  La1  1  0.02691900  0.73581100  0.45494000  1
  La  La2  1  0.97308100  0.26418900  0.54506000  1
  La  La3  1  0.02133000  0.73767500  0.03540300  1
  La  La4  1  0.97772600  0.86529300  0.75051800  1
  La  La5  1  0.97867000  0.26232500  0.96459700  1
  Ga  Ga6  1  0.50636400  0.19332500  0.74340500  1
  Ga  Ga7  1  0.49363600  0.80667500  0.25659500  1
  Ge  Ge8  1  0.52016500  0.94440800  0.91149600  1
  Ge  Ge9  1  0.00974300  0.56738200  0.24387200  1
  Ge  Ge10  1  0.48422400  0.94413500  0.58564900  1
  Ge  Ge11  1  0.47861500  0.43786700  0.12608000  1
  Ge  Ge12  1  0.55299700  0.43327300  0.36134300  1
  Ge  Ge13  1  0.99025700  0.43261800  0.75612800  1
  Ge  Ge14  1  0.51577600  0.05586500  0.41435100  1
  Ge  Ge15  1  0.44700300  0.56672700  0.63865700  1
  Ge  Ge16  1  0.47983500  0.05559200  0.08850400  1
  Ge  Ge17  1  0.52138500  0.56213300  0.87392000  1
  O  O18  1  0.12901300  0.91880600  0.59466800  1
  O  O19  1  0.20716500  0.72076400  0.18648100  1
  O  O20  1  0.68994000  0.06564200  0.66367700  1
  O  O21  1  0.18912200  0.28271300  0.69250100  1
  O  O22  1  0.81087800  0.71728700  0.30749900  1
  O  O23  1  0.23835600  0.52331000  0.54641200  1
  O  O24  1  0.11874900  0.06283100  0.09475000  1
  O  O25  1  0.74846000  0.52184500  0.96194100  1
  O  O26  1  0.74490200  0.58423900  0.14717200  1
  O  O27  1  0.79283500  0.27923600  0.81351900  1
  O  O28  1  0.76164400  0.47669000  0.45358800  1
  O  O29  1  0.66797400  0.25156700  0.10971900  1
  O  O30  1  0.87098700  0.08119400  0.40533200  1
  O  O31  1  0.55108200  0.85442700  0.48163500  1
  O  O32  1  0.71390800  0.41795700  0.65821900  1
  O  O33  1  0.31006000  0.93435800  0.33632300  1
  O  O34  1  0.54648900  0.86462700  0.03326600  1
  O  O35  1  0.79577600  0.39342000  0.28260000  1
  O  O36  1  0.44891800  0.14557300  0.51836500  1
  O  O37  1  0.45351100  0.13537300  0.96673400  1
  O  O38  1  0.33202600  0.74843300  0.89028100  1
  O  O39  1  0.60436100  0.99235500  0.19668100  1
  O  O40  1  0.20422400  0.60658000  0.71740000  1
  O  O41  1  0.25509800  0.41576100  0.85282800  1
  O  O42  1  0.76250200  0.60753300  0.79659600  1
  O  O43  1  0.39563900  0.00764500  0.80331900  1
  O  O44  1  0.37131200  0.24486600  0.36074600  1
  O  O45  1  0.28609200  0.58204300  0.34178100  1
  O  O46  1  0.88125100  0.93716900  0.90525000  1
  O  O47  1  0.23749800  0.39246700  0.20340400  1
  O  O48  1  0.25154000  0.47815500  0.03805900  1
  O  O49  1  0.62868800  0.75513400  0.63925400  1
