# generated using pymatgen
data_ZnH4(NO4)2
_symmetry_space_group_name_H-M   'P 1'
_cell_length_a   6.23989200
_cell_length_b   5.71817700
_cell_length_c   8.63869476
_cell_angle_alpha   89.64292605
_cell_angle_beta   90.00000000
_cell_angle_gamma   90.00000000
_symmetry_Int_Tables_number   1
_chemical_formula_structural   ZnH4(NO4)2
_chemical_formula_sum   'Zn2 H8 N4 O16'
_cell_volume   308.22961393
_cell_formula_units_Z   2
loop_
 _symmetry_equiv_pos_site_id
 _symmetry_equiv_pos_as_xyz
  1  'x, y, z'
loop_
 _atom_site_type_symbol
 _atom_site_label
 _atom_site_symmetry_multiplicity
 _atom_site_fract_x
 _atom_site_fract_y
 _atom_site_fract_z
 _atom_site_occupancy
  Zn  Zn0  1  0.50000000  0.50000000  0.00000000  1
  Zn  Zn1  1  0.00000000  0.50000000  0.50000000  1
  H  H2  1  0.81774800  0.30160700  0.88876000  1
  H  H3  1  0.31774800  0.69839300  0.61124000  1
  H  H4  1  0.18225200  0.69839300  0.11124000  1
  H  H5  1  0.68225200  0.30160700  0.38876000  1
  H  H6  1  0.72063400  0.09833700  0.99166300  1
  H  H7  1  0.22063400  0.90166300  0.50833700  1
  H  H8  1  0.27936600  0.90166300  0.00833700  1
  H  H9  1  0.77936600  0.09833700  0.49166300  1
  N  N10  1  0.84100800  0.74986800  0.80118600  1
  N  N11  1  0.34100800  0.25013200  0.69881400  1
  N  N12  1  0.15899200  0.25013200  0.19881400  1
  N  N13  1  0.65899200  0.74986800  0.30118600  1
  O  O14  1  0.92016300  0.92866200  0.74386600  1
  O  O15  1  0.42016300  0.07133800  0.75613400  1
  O  O16  1  0.07983700  0.07133800  0.25613400  1
  O  O17  1  0.57983700  0.92866200  0.24386600  1
  O  O18  1  0.86899700  0.54746900  0.74095500  1
  O  O19  1  0.36899700  0.45253100  0.75904500  1
  O  O20  1  0.13100300  0.45253100  0.25904500  1
  O  O21  1  0.63100300  0.54746900  0.24095500  1
  O  O22  1  0.72672700  0.76343300  0.92539300  1
  O  O23  1  0.22672700  0.23656700  0.57460700  1
  O  O24  1  0.27327300  0.23656700  0.07460700  1
  O  O25  1  0.77327300  0.76343300  0.42539300  1
  O  O26  1  0.75068300  0.26795600  0.98960800  1
  O  O27  1  0.25068300  0.73204400  0.51039200  1
  O  O28  1  0.24931700  0.73204400  0.01039200  1
  O  O29  1  0.74931700  0.26795600  0.48960800  1
