# generated using pymatgen
data_K4Zr6CBr18
_symmetry_space_group_name_H-M   'P 1'
_cell_length_a   10.41163191
_cell_length_b   10.55862780
_cell_length_c   10.65754655
_cell_angle_alpha   118.50040831
_cell_angle_beta   100.01584526
_cell_angle_gamma   103.94940078
_symmetry_Int_Tables_number   1
_chemical_formula_structural   K4Zr6CBr18
_chemical_formula_sum   'K4 Zr6 C1 Br18'
_cell_volume   940.17076641
_cell_formula_units_Z   1
loop_
 _symmetry_equiv_pos_site_id
 _symmetry_equiv_pos_as_xyz
  1  'x, y, z'
loop_
 _atom_site_type_symbol
 _atom_site_label
 _atom_site_symmetry_multiplicity
 _atom_site_fract_x
 _atom_site_fract_y
 _atom_site_fract_z
 _atom_site_occupancy
  K  K0  1  0.18613331  0.72413300  0.56394988  1
  K  K1  1  0.84746108  0.96164558  0.77291265  1
  K  K2  1  0.15253892  0.03835442  0.22708735  1
  K  K3  1  0.81386669  0.27586700  0.43605012  1
  Zr  Zr4  1  0.35308832  0.44474527  0.77423669  1
  Zr  Zr5  1  0.36397382  0.62378710  0.13040368  1
  Zr  Zr6  1  0.64267580  0.73455601  0.04447949  1
  Zr  Zr7  1  0.64691168  0.55525473  0.22576331  1
  Zr  Zr8  1  0.35732420  0.26544399  0.95552051  1
  Zr  Zr9  1  0.63602618  0.37621290  0.86959632  1
  C  C10  1  0.50000000  0.50000000  0.00000000  1
  Br  Br11  1  0.82213883  0.42255567  0.11059753  1
  Br  Br12  1  0.51414129  0.70567959  0.41062729  1
  Br  Br13  1  0.17688293  0.97480385  0.89922851  1
  Br  Br14  1  0.17786117  0.57744433  0.88940247  1
  Br  Br15  1  0.83043484  0.83539418  0.31284038  1
  Br  Br16  1  0.50339100  0.29473074  0.21021349  1
  Br  Br17  1  0.79916234  0.22320505  0.71018369  1
  Br  Br18  1  0.16956516  0.16460582  0.68715962  1
  Br  Br19  1  0.50750197  0.91178054  0.19831409  1
  Br  Br20  1  0.81898076  0.62865168  0.90251802  1
  Br  Br21  1  0.20083766  0.77679495  0.28981631  1
  Br  Br22  1  0.16608339  0.37841695  0.49584368  1
  Br  Br23  1  0.49660900  0.70526926  0.78978651  1
  Br  Br24  1  0.82311707  0.02519615  0.10077149  1
  Br  Br25  1  0.48585871  0.29432041  0.58937271  1
  Br  Br26  1  0.18101924  0.37134832  0.09748198  1
  Br  Br27  1  0.83391661  0.62158305  0.50415632  1
  Br  Br28  1  0.49249803  0.08821946  0.80168591  1
