# generated using pymatgen
data_Ba5SrLa2Fe4O15
_symmetry_space_group_name_H-M   'P 1'
_cell_length_a   11.95786144
_cell_length_b   11.95786144
_cell_length_c   14.31294884
_cell_angle_alpha   89.73837355
_cell_angle_beta   89.73837355
_cell_angle_gamma   59.93996009
_symmetry_Int_Tables_number   1
_chemical_formula_structural   Ba5SrLa2Fe4O15
_chemical_formula_sum   'Ba20 Sr4 La8 Fe16 O60'
_cell_volume   1771.32268024
_cell_formula_units_Z   4
loop_
 _symmetry_equiv_pos_site_id
 _symmetry_equiv_pos_as_xyz
  1  'x, y, z'
loop_
 _atom_site_type_symbol
 _atom_site_label
 _atom_site_symmetry_multiplicity
 _atom_site_fract_x
 _atom_site_fract_y
 _atom_site_fract_z
 _atom_site_occupancy
  Ba  Ba0  1  0.17252200  0.17534500  0.91792200  1
  Ba  Ba1  1  0.17534500  0.17252200  0.41792200  1
  Ba  Ba2  1  0.00081700  0.00175200  0.00458300  1
  Ba  Ba3  1  0.00014200  0.99864500  0.75437200  1
  Ba  Ba4  1  0.00175200  0.00081700  0.50458300  1
  Ba  Ba5  1  0.99864500  0.00014200  0.25437200  1
  Ba  Ba6  1  0.17523600  0.65256900  0.91743900  1
  Ba  Ba7  1  0.33636100  0.33364400  0.75743900  1
  Ba  Ba8  1  0.17696300  0.65233700  0.41422300  1
  Ba  Ba9  1  0.33364400  0.33636100  0.25743900  1
  Ba  Ba10  1  0.65233700  0.17696300  0.91422300  1
  Ba  Ba11  1  0.65256900  0.17523600  0.41743900  1
  Ba  Ba12  1  0.34863800  0.82612000  0.66734200  1
  Ba  Ba13  1  0.34577400  0.82435400  0.16833400  1
  Ba  Ba14  1  0.82435400  0.34577400  0.66833400  1
  Ba  Ba15  1  0.66351600  0.66856800  0.50527400  1
  Ba  Ba16  1  0.82612000  0.34863800  0.16734200  1
  Ba  Ba17  1  0.66856800  0.66351600  0.00527400  1
  Ba  Ba18  1  0.82305000  0.82914200  0.66367600  1
  Ba  Ba19  1  0.82914200  0.82305000  0.16367600  1
  Sr  Sr20  1  0.04435400  0.47722500  0.08037300  1
  Sr  Sr21  1  0.47722500  0.04435400  0.58037300  1
  Sr  Sr22  1  0.52123400  0.52297900  0.83044000  1
  Sr  Sr23  1  0.52297900  0.52123400  0.33044000  1
  La  La24  1  0.04244500  0.47885500  0.57958700  1
  La  La25  1  0.47885500  0.04244500  0.07958700  1
  La  La26  1  0.47771500  0.47920200  0.58123500  1
  La  La27  1  0.47920200  0.47771500  0.08123500  1
  La  La28  1  0.52151300  0.95668500  0.82849400  1
  La  La29  1  0.52194000  0.95738100  0.33272900  1
  La  La30  1  0.95738100  0.52194000  0.83272900  1
  La  La31  1  0.95668500  0.52151300  0.32849400  1
  Fe  Fe32  1  0.17988500  0.18064700  0.66986600  1
  Fe  Fe33  1  0.18064700  0.17988500  0.16986600  1
  Fe  Fe34  1  0.17739100  0.64094400  0.16738900  1
  Fe  Fe35  1  0.17584400  0.64321900  0.66785600  1
  Fe  Fe36  1  0.33110900  0.33366500  0.98454400  1
  Fe  Fe37  1  0.33366500  0.33110900  0.48454400  1
  Fe  Fe38  1  0.64094400  0.17739100  0.66738900  1
  Fe  Fe39  1  0.64321900  0.17584400  0.16785600  1
  Fe  Fe40  1  0.35855400  0.81850400  0.41721400  1
  Fe  Fe41  1  0.35874400  0.82043800  0.92002900  1
  Fe  Fe42  1  0.66390300  0.66809700  0.23284600  1
  Fe  Fe43  1  0.66809700  0.66390300  0.73284600  1
  Fe  Fe44  1  0.81850400  0.35855400  0.91721400  1
  Fe  Fe45  1  0.82043800  0.35874400  0.42002900  1
  Fe  Fe46  1  0.82006700  0.82274100  0.91621200  1
  Fe  Fe47  1  0.82274100  0.82006700  0.41621200  1
  O  O48  1  0.09679700  0.09644100  0.62243100  1
  O  O49  1  0.09644100  0.09679700  0.12243100  1
  O  O50  1  0.06406100  0.33331800  0.73577600  1
  O  O51  1  0.06825400  0.32796000  0.24056700  1
  O  O52  1  0.32796000  0.06825400  0.74056700  1
  O  O53  1  0.33331800  0.06406100  0.23577600  1
  O  O54  1  0.06117800  0.60533900  0.73494200  1
  O  O55  1  0.06435000  0.60739700  0.24020600  1
  O  O56  1  0.24349900  0.25374400  0.57743600  1
  O  O57  1  0.25374400  0.24349900  0.07743600  1
  O  O58  1  0.17034200  0.41350900  0.90975900  1
  O  O59  1  0.16616500  0.41609800  0.41462600  1
  O  O60  1  0.09053400  0.81104100  0.62122400  1
  O  O61  1  0.09182700  0.80886100  0.12005200  1
  O  O62  1  0.25236100  0.50081300  0.07749000  1
  O  O63  1  0.24450600  0.50494600  0.57691000  1
  O  O64  1  0.41609800  0.16616500  0.91462600  1
  O  O65  1  0.41350900  0.17034200  0.40975900  1
  O  O66  1  0.41537200  0.41363000  0.91660200  1
  O  O67  1  0.41363000  0.41537200  0.41660200  1
  O  O68  1  0.50081300  0.25236100  0.57749000  1
  O  O69  1  0.50494600  0.24450600  0.07691000  1
  O  O70  1  0.32862200  0.60376300  0.73162300  1
  O  O71  1  0.32859300  0.60446700  0.23244000  1
  O  O72  1  0.19221800  0.90259700  0.87102700  1
  O  O73  1  0.19206800  0.90104600  0.36877600  1
  O  O74  1  0.60533900  0.06117800  0.23494200  1
  O  O75  1  0.60739700  0.06435000  0.74020600  1
  O  O76  1  0.39307800  0.67227200  0.99112900  1
  O  O77  1  0.39427000  0.67131800  0.48981700  1
  O  O78  1  0.60446700  0.32859300  0.73244000  1
  O  O79  1  0.60376300  0.32862200  0.23162300  1
  O  O80  1  0.39539400  0.93550200  0.98625800  1
  O  O81  1  0.39503500  0.93374900  0.48197300  1
  O  O82  1  0.80886100  0.09182700  0.62005200  1
  O  O83  1  0.81104100  0.09053400  0.12122400  1
  O  O84  1  0.67131800  0.39427000  0.98981700  1
  O  O85  1  0.67227200  0.39307800  0.49112900  1
  O  O86  1  0.49605100  0.75621800  0.82788000  1
  O  O87  1  0.49822100  0.75488100  0.32590600  1
  O  O88  1  0.58489000  0.58594600  0.16000300  1
  O  O89  1  0.58594600  0.58489000  0.66000300  1
  O  O90  1  0.75488100  0.49822100  0.82590600  1
  O  O91  1  0.58697000  0.82933400  0.66588300  1
  O  O92  1  0.58402800  0.83402800  0.16235600  1
  O  O93  1  0.75621800  0.49605100  0.32788000  1
  O  O94  1  0.90104600  0.19206800  0.86877600  1
  O  O95  1  0.90259700  0.19221800  0.37102700  1
  O  O96  1  0.83402800  0.58402800  0.66235600  1
  O  O97  1  0.82933400  0.58697000  0.16588300  1
  O  O98  1  0.75165900  0.75169700  0.82684300  1
  O  O99  1  0.75169700  0.75165900  0.32684300  1
  O  O100  1  0.93374900  0.39503500  0.98197300  1
  O  O101  1  0.93550200  0.39539400  0.48625800  1
  O  O102  1  0.66607600  0.93571600  0.98261400  1
  O  O103  1  0.66942600  0.93506200  0.48009400  1
  O  O104  1  0.93506200  0.66942600  0.98009400  1
  O  O105  1  0.93571600  0.66607600  0.48261400  1
  O  O106  1  0.90574000  0.90695000  0.87403700  1
  O  O107  1  0.90695000  0.90574000  0.37403700  1
