# generated using pymatgen
data_Na2UI6
_symmetry_space_group_name_H-M   'P 1'
_cell_length_a   9.13890751
_cell_length_b   9.18623825
_cell_length_c   34.76501956
_cell_angle_alpha   51.45269435
_cell_angle_beta   53.27951896
_cell_angle_gamma   54.11757830
_symmetry_Int_Tables_number   1
_chemical_formula_structural   Na2UI6
_chemical_formula_sum   'Na8 U4 I24'
_cell_volume   1720.25361401
_cell_formula_units_Z   4
loop_
 _symmetry_equiv_pos_site_id
 _symmetry_equiv_pos_as_xyz
  1  'x, y, z'
loop_
 _atom_site_type_symbol
 _atom_site_label
 _atom_site_symmetry_multiplicity
 _atom_site_fract_x
 _atom_site_fract_y
 _atom_site_fract_z
 _atom_site_occupancy
  Na  Na0  1  0.49639700  0.49812900  0.12450800  1
  Na  Na1  1  0.68115100  0.67515000  0.17132300  1
  Na  Na2  1  0.49624900  0.49658600  0.37497200  1
  Na  Na3  1  0.68022600  0.67449600  0.42168800  1
  Na  Na4  1  0.49484000  0.50100900  0.62364800  1
  Na  Na5  1  0.31730900  0.32677300  0.83036700  1
  Na  Na6  1  0.68298400  0.67928100  0.67028200  1
  Na  Na7  1  0.67811700  0.66962200  0.92141700  1
  U  U8  1  0.99512500  0.00228300  0.00045200  1
  U  U9  1  0.00110500  0.00248200  0.24859600  1
  U  U10  1  0.00089700  0.00241100  0.49885200  1
  U  U11  1  0.00871800  0.99698400  0.74886500  1
  I  I12  1  0.09105200  0.37165400  0.19151000  1
  I  I13  1  0.36329600  0.77517700  0.02338800  1
  I  I14  1  0.76668900  0.08635400  0.09838400  1
  I  I15  1  0.24761700  0.90193200  0.15332400  1
  I  I16  1  0.64129700  0.23894700  0.22427800  1
  I  I17  1  0.09037000  0.37242400  0.44149200  1
  I  I18  1  0.89653900  0.63460300  0.06093400  1
  I  I19  1  0.36347000  0.77606400  0.27325600  1
  I  I20  1  0.76659200  0.08525800  0.34781800  1
  I  I21  1  0.24709000  0.90311600  0.40373300  1
  I  I22  1  0.64133800  0.24082800  0.47387400  1
  I  I23  1  0.09119500  0.37170300  0.69175800  1
  I  I24  1  0.89571900  0.63810600  0.31050100  1
  I  I25  1  0.36360700  0.77544900  0.52333500  1
  I  I26  1  0.76706400  0.08627900  0.59725100  1
  I  I27  1  0.24752000  0.90428600  0.65281600  1
  I  I28  1  0.63152400  0.24262500  0.72474800  1
  I  I29  1  0.09111900  0.37148800  0.94060600  1
  I  I30  1  0.89715400  0.63679800  0.56063900  1
  I  I31  1  0.36654400  0.75968700  0.77500100  1
  I  I32  1  0.75824000  0.08358800  0.84671700  1
  I  I33  1  0.24297600  0.91065500  0.90332600  1
  I  I34  1  0.64555300  0.23244600  0.97553100  1
  I  I35  1  0.90832000  0.63032600  0.80956100  1
