# generated using pymatgen
data_V5S8
_symmetry_space_group_name_H-M   'P 1'
_cell_length_a   6.56146053
_cell_length_b   6.56146053
_cell_length_c   7.94999098
_cell_angle_alpha   53.08208894
_cell_angle_beta   53.08208894
_cell_angle_gamma   60.56644358
_symmetry_Int_Tables_number   1
_chemical_formula_structural   V5S8
_chemical_formula_sum   'V5 S8'
_cell_volume   214.16088832
_cell_formula_units_Z   1
loop_
 _symmetry_equiv_pos_site_id
 _symmetry_equiv_pos_as_xyz
  1  'x, y, z'
loop_
 _atom_site_type_symbol
 _atom_site_label
 _atom_site_symmetry_multiplicity
 _atom_site_fract_x
 _atom_site_fract_y
 _atom_site_fract_z
 _atom_site_occupancy
  V  V0  1  0.00000000  0.00000000  0.00000000  1
  V  V1  1  0.70685700  0.29314300  0.50000000  1
  V  V2  1  0.29314300  0.70685700  0.50000000  1
  V  V3  1  0.27440100  0.27440100  0.49150800  1
  V  V4  1  0.72559900  0.72559900  0.50849200  1
  S  S5  1  0.01718200  0.01718200  0.28916500  1
  S  S6  1  0.98281800  0.98281800  0.71083500  1
  S  S7  1  0.55760500  0.55760500  0.21905800  1
  S  S8  1  0.44239500  0.44239500  0.78094200  1
  S  S9  1  0.03912000  0.53999900  0.24779800  1
  S  S10  1  0.46000100  0.96088000  0.75220200  1
  S  S11  1  0.53999900  0.03912000  0.24779800  1
  S  S12  1  0.96088000  0.46000100  0.75220200  1
