# generated using pymatgen
data_Na3Pb2S3ClO12
_symmetry_space_group_name_H-M   'P 1'
_cell_length_a   7.17944000
_cell_length_b   9.96277500
_cell_length_c   10.01750409
_cell_angle_alpha   60.18189043
_cell_angle_beta   90.00000000
_cell_angle_gamma   90.00000000
_symmetry_Int_Tables_number   1
_chemical_formula_structural   Na3Pb2S3ClO12
_chemical_formula_sum   'Na6 Pb4 S6 Cl2 O24'
_cell_volume   621.66173253
_cell_formula_units_Z   2
loop_
 _symmetry_equiv_pos_site_id
 _symmetry_equiv_pos_as_xyz
  1  'x, y, z'
loop_
 _atom_site_type_symbol
 _atom_site_label
 _atom_site_symmetry_multiplicity
 _atom_site_fract_x
 _atom_site_fract_y
 _atom_site_fract_z
 _atom_site_occupancy
  Na  Na0  1  0.25000000  0.73674400  0.00286400  1
  Na  Na1  1  0.00260700  0.66047700  0.67523600  1
  Na  Na2  1  0.49739300  0.66047700  0.67523600  1
  Na  Na3  1  0.50260700  0.33952300  0.32476400  1
  Na  Na4  1  0.99739300  0.33952300  0.32476400  1
  Na  Na5  1  0.75000000  0.26325600  0.99713600  1
  Pb  Pb6  1  0.25000000  0.01062600  0.24092800  1
  Pb  Pb7  1  0.75000000  0.74248500  0.25328700  1
  Pb  Pb8  1  0.25000000  0.25751500  0.74671300  1
  Pb  Pb9  1  0.75000000  0.98937400  0.75907200  1
  S  S10  1  0.75000000  0.96687700  0.41260200  1
  S  S11  1  0.75000000  0.62309100  0.96457800  1
  S  S12  1  0.25000000  0.58663000  0.38180600  1
  S  S13  1  0.75000000  0.41337000  0.61819400  1
  S  S14  1  0.25000000  0.37690900  0.03542200  1
  S  S15  1  0.25000000  0.03312300  0.58739800  1
  Cl  Cl16  1  0.00000000  0.00000000  0.00000000  1
  Cl  Cl17  1  0.50000000  0.00000000  0.00000000  1
  O  O18  1  0.25000000  0.86553600  0.64506900  1
  O  O19  1  0.58220700  0.72834200  0.91540300  1
  O  O20  1  0.91779300  0.72834200  0.91540300  1
  O  O21  1  0.75000000  0.87656500  0.58574100  1
  O  O22  1  0.58310300  0.91676400  0.35777500  1
  O  O23  1  0.91689700  0.91676400  0.35777500  1
  O  O24  1  0.75000000  0.53374300  0.88242900  1
  O  O25  1  0.25000000  0.48083800  0.86550300  1
  O  O26  1  0.25000000  0.64122500  0.49507200  1
  O  O27  1  0.75000000  0.58832200  0.53600200  1
  O  O28  1  0.08261500  0.64163700  0.28032200  1
  O  O29  1  0.41738500  0.64163700  0.28032200  1
  O  O30  1  0.58261500  0.35836300  0.71967800  1
  O  O31  1  0.91738500  0.35836300  0.71967800  1
  O  O32  1  0.25000000  0.41167800  0.46399800  1
  O  O33  1  0.75000000  0.35877500  0.50492800  1
  O  O34  1  0.75000000  0.51916200  0.13449700  1
  O  O35  1  0.25000000  0.46625700  0.11757100  1
  O  O36  1  0.08310300  0.08323600  0.64222500  1
  O  O37  1  0.41689700  0.08323600  0.64222500  1
  O  O38  1  0.25000000  0.12343500  0.41425900  1
  O  O39  1  0.08220700  0.27165800  0.08459700  1
  O  O40  1  0.41779300  0.27165800  0.08459700  1
  O  O41  1  0.75000000  0.13446400  0.35493100  1
