# generated using pymatgen
data_Mn27Sb26
_symmetry_space_group_name_H-M   'P 1'
_cell_length_a   9.95525800
_cell_length_b   10.77286779
_cell_length_c   11.97180349
_cell_angle_alpha   108.84869693
_cell_angle_beta   112.75065576
_cell_angle_gamma   99.16044529
_symmetry_Int_Tables_number   1
_chemical_formula_structural   Mn27Sb26
_chemical_formula_sum   'Mn27 Sb26'
_cell_volume   1059.49815263
_cell_formula_units_Z   1
loop_
 _symmetry_equiv_pos_site_id
 _symmetry_equiv_pos_as_xyz
  1  'x, y, z'
loop_
 _atom_site_type_symbol
 _atom_site_label
 _atom_site_symmetry_multiplicity
 _atom_site_fract_x
 _atom_site_fract_y
 _atom_site_fract_z
 _atom_site_occupancy
  Mn  Mn0  1  0.00243900  0.99941000  0.99867300  1
  Mn  Mn1  1  0.46160000  0.07616500  0.23042200  1
  Mn  Mn2  1  0.50124900  0.99848100  0.99933400  1
  Mn  Mn3  1  0.92333700  0.15317900  0.46123100  1
  Mn  Mn4  1  0.96075100  0.07686200  0.22721200  1
  Mn  Mn5  1  0.42165600  0.15266000  0.46049100  1
  Mn  Mn6  1  0.38424400  0.22989500  0.69322600  1
  Mn  Mn7  1  0.84832400  0.31542700  0.92633100  1
  Mn  Mn8  1  0.88584200  0.23422900  0.69114600  1
  Mn  Mn9  1  0.30963000  0.38495900  0.15428500  1
  Mn  Mn10  1  0.34858700  0.30680500  0.92339000  1
  Mn  Mn11  1  0.80820400  0.38431600  0.15464900  1
  Mn  Mn12  1  0.76766200  0.46290000  0.38541100  1
  Mn  Mn13  1  0.22680600  0.53679100  0.61484700  1
  Mn  Mn14  1  0.26512800  0.45796100  0.38073500  1
  Mn  Mn15  1  0.69151600  0.61271500  0.84357100  1
  Mn  Mn16  1  0.72966700  0.53690600  0.61643600  1
  Mn  Mn17  1  0.15617600  0.68999900  0.08085400  1
  Mn  Mn18  1  0.19486900  0.61364900  0.84503500  1
  Mn  Mn19  1  0.61784900  0.76972900  0.30936900  1
  Mn  Mn20  1  0.65229800  0.69436100  0.07527400  1
  Mn  Mn21  1  0.07367100  0.84652400  0.53819400  1
  Mn  Mn22  1  0.11695400  0.76912300  0.30920600  1
  Mn  Mn23  1  0.53480200  0.91995000  0.76577200  1
  Mn  Mn24  1  0.57694100  0.84887900  0.54138500  1
  Mn  Mn25  1  0.76397000  0.80976200  0.75732700  1
  Mn  Mn26  1  0.03850000  0.92550200  0.77281400  1
  Sb  Sb27  1  0.64722500  0.04016200  0.44913700  1
  Sb  Sb28  1  0.81742000  0.05748700  0.78498700  1
  Sb  Sb29  1  0.10857600  0.11706100  0.67992100  1
  Sb  Sb30  1  0.27705200  0.11444600  0.01338600  1
  Sb  Sb31  1  0.57229000  0.19262100  0.91024300  1
  Sb  Sb32  1  0.73803100  0.19083400  0.24432400  1
  Sb  Sb33  1  0.03226000  0.27054900  0.13831300  1
  Sb  Sb34  1  0.19821800  0.26596800  0.47396400  1
  Sb  Sb35  1  0.49295500  0.34632900  0.37175300  1
  Sb  Sb36  1  0.65814500  0.34400400  0.70368100  1
  Sb  Sb37  1  0.95384500  0.42338400  0.60135600  1
  Sb  Sb38  1  0.12539200  0.42162400  0.93592000  1
  Sb  Sb39  1  0.41674900  0.49987200  0.83154300  1
  Sb  Sb40  1  0.58391500  0.49863000  0.16558500  1
  Sb  Sb41  1  0.87692600  0.58078200  0.06546600  1
  Sb  Sb42  1  0.04360800  0.57559600  0.39726300  1
  Sb  Sb43  1  0.34272000  0.65565500  0.29763100  1
  Sb  Sb44  1  0.48913200  0.64145300  0.61910300  1
  Sb  Sb45  1  0.80008800  0.73476400  0.53223600  1
  Sb  Sb46  1  0.98084100  0.72279700  0.86597700  1
  Sb  Sb47  1  0.26003100  0.80899700  0.75584800  1
  Sb  Sb48  1  0.42875300  0.80604600  0.09043500  1
  Sb  Sb49  1  0.72509200  0.88367200  0.98054200  1
  Sb  Sb50  1  0.89259300  0.88521200  0.32073000  1
  Sb  Sb51  1  0.18578000  0.96200800  0.21829600  1
  Sb  Sb52  1  0.35251000  0.96060000  0.55214800  1
