# generated using pymatgen
data_Zr3S4
_symmetry_space_group_name_H-M   'P 1'
_cell_length_a   7.35249163
_cell_length_b   7.36772562
_cell_length_c   29.33513271
_cell_angle_alpha   59.88007640
_cell_angle_beta   60.09653369
_cell_angle_gamma   59.61160219
_symmetry_Int_Tables_number   1
_chemical_formula_structural   Zr3S4
_chemical_formula_sum   'Zr24 S32'
_cell_volume   1120.13543174
_cell_formula_units_Z   8
loop_
 _symmetry_equiv_pos_site_id
 _symmetry_equiv_pos_as_xyz
  1  'x, y, z'
loop_
 _atom_site_type_symbol
 _atom_site_label
 _atom_site_symmetry_multiplicity
 _atom_site_fract_x
 _atom_site_fract_y
 _atom_site_fract_z
 _atom_site_occupancy
  Zr  Zr0  1  0.98786415  0.00087004  0.99764363  1
  Zr  Zr1  1  0.48485902  0.00276418  0.00340746  1
  Zr  Zr2  1  0.00000000  0.50000000  0.12500000  1
  Zr  Zr3  1  0.98433246  0.01618464  0.36973200  1
  Zr  Zr4  1  0.00000000  0.00000000  0.12500000  1
  Zr  Zr5  1  0.50000000  0.50000000  0.12500000  1
  Zr  Zr6  1  0.01213585  0.99912996  0.25235637  1
  Zr  Zr7  1  0.98600047  0.53463435  0.99912012  1
  Zr  Zr8  1  0.52187523  0.00579613  0.37627341  1
  Zr  Zr9  1  0.52090873  0.46065520  0.37686117  1
  Zr  Zr10  1  0.51514098  0.99723582  0.24659254  1
  Zr  Zr11  1  0.98584214  0.99531718  0.74760166  1
  Zr  Zr12  1  0.01415786  0.00468282  0.50239834  1
  Zr  Zr13  1  0.01399953  0.46536565  0.25087988  1
  Zr  Zr14  1  0.00000000  0.00000000  0.62500000  1
  Zr  Zr15  1  0.50000000  0.50000000  0.62500000  1
  Zr  Zr16  1  0.51285728  0.99014298  0.75198326  1
  Zr  Zr17  1  0.48714272  0.00985702  0.49801674  1
  Zr  Zr18  1  0.01382339  0.46942196  0.50238384  1
  Zr  Zr19  1  0.50000000  0.00000000  0.62500000  1
  Zr  Zr20  1  0.01566754  0.98381536  0.88026800  1
  Zr  Zr21  1  0.47909127  0.53934480  0.87313883  1
  Zr  Zr22  1  0.98617661  0.53057804  0.74761616  1
  Zr  Zr23  1  0.47812477  0.99420387  0.87372659  1
  S  S24  1  0.24726491  0.25596616  0.06246474  1
  S  S25  1  0.27364402  0.23021718  0.18223396  1
  S  S26  1  0.25231965  0.74437054  0.06042046  1
  S  S27  1  0.24874271  0.73952958  0.18993779  1
  S  S28  1  0.26098038  0.23667543  0.31311276  1
  S  S29  1  0.75125729  0.26047042  0.06006221  1
  S  S30  1  0.72635598  0.76978282  0.06776604  1
  S  S31  1  0.26365919  0.74381210  0.31297246  1
  S  S32  1  0.74768035  0.25562946  0.18957954  1
  S  S33  1  0.23819479  0.26274600  0.43291742  1
  S  S34  1  0.25380836  0.74950343  0.43578994  1
  S  S35  1  0.73447396  0.26783834  0.30551263  1
  S  S36  1  0.25276727  0.25286867  0.56376736  1
  S  S37  1  0.75273509  0.74403384  0.18753526  1
  S  S38  1  0.75766425  0.24105731  0.43959135  1
  S  S39  1  0.76208708  0.73599275  0.31398761  1
  S  S40  1  0.23859611  0.25521013  0.68807424  1
  S  S41  1  0.25461242  0.73848216  0.56335503  1
  S  S42  1  0.26333576  0.74104368  0.68895943  1
  S  S43  1  0.73666424  0.25895632  0.56104057  1
  S  S44  1  0.24129517  0.25994842  0.81069360  1
  S  S45  1  0.75870483  0.74005158  0.43930640  1
  S  S46  1  0.74538758  0.26151784  0.68664497  1
  S  S47  1  0.76140389  0.74478987  0.56192576  1
  S  S48  1  0.24233575  0.75894269  0.81040865  1
  S  S49  1  0.23791292  0.26400725  0.93601239  1
  S  S50  1  0.26552604  0.73216166  0.94448737  1
  S  S51  1  0.74619164  0.25049657  0.81421006  1
  S  S52  1  0.74723273  0.74713133  0.68623264  1
  S  S53  1  0.73634081  0.25618790  0.93702754  1
  S  S54  1  0.76180521  0.73725400  0.81708258  1
  S  S55  1  0.73901962  0.76332457  0.93688724  1
