# generated using pymatgen
data_Yb4Mg3H14
_symmetry_space_group_name_H-M   'P 1'
_cell_length_a   6.20014518
_cell_length_b   6.20014518
_cell_length_c   6.78021100
_cell_angle_alpha   90.00000000
_cell_angle_beta   90.00000000
_cell_angle_gamma   119.99999128
_symmetry_Int_Tables_number   1
_chemical_formula_structural   Yb4Mg3H14
_chemical_formula_sum   'Yb4 Mg3 H14'
_cell_volume   225.72392705
_cell_formula_units_Z   1
loop_
 _symmetry_equiv_pos_site_id
 _symmetry_equiv_pos_as_xyz
  1  'x, y, z'
loop_
 _atom_site_type_symbol
 _atom_site_label
 _atom_site_symmetry_multiplicity
 _atom_site_fract_x
 _atom_site_fract_y
 _atom_site_fract_z
 _atom_site_occupancy
  Yb  Yb0  1  0.00000000  0.00000000  0.73248000  1
  Yb  Yb1  1  0.00000000  0.00000000  0.26752000  1
  Yb  Yb2  1  0.66666700  0.33333300  0.50000000  1
  Yb  Yb3  1  0.33333300  0.66666700  0.50000000  1
  Mg  Mg4  1  0.44104300  0.44104300  0.00000000  1
  Mg  Mg5  1  0.55895700  0.00000000  0.00000000  1
  Mg  Mg6  1  0.00000000  0.55895700  0.00000000  1
  H  H7  1  0.38608000  0.38608000  0.72108600  1
  H  H8  1  0.61392000  0.00000000  0.72108600  1
  H  H9  1  0.00000000  0.61392000  0.72108600  1
  H  H10  1  0.38608000  0.38608000  0.27891400  1
  H  H11  1  0.61392000  0.00000000  0.27891400  1
  H  H12  1  0.00000000  0.61392000  0.27891400  1
  H  H13  1  0.73692300  0.73692300  0.50000000  1
  H  H14  1  0.26307700  0.00000000  0.50000000  1
  H  H15  1  0.00000000  0.26307700  0.50000000  1
  H  H16  1  0.76986400  0.76986400  0.00000000  1
  H  H17  1  0.23013600  0.00000000  0.00000000  1
  H  H18  1  0.00000000  0.23013600  0.00000000  1
  H  H19  1  0.66666700  0.33333300  0.00000000  1
  H  H20  1  0.33333300  0.66666700  0.00000000  1
