# generated using pymatgen
data_Sm2Te3
_symmetry_space_group_name_H-M   'P 1'
_cell_length_a   15.69953842
_cell_length_b   15.69953842
_cell_length_c   15.69953842
_cell_angle_alpha   144.95610021
_cell_angle_beta   144.95610021
_cell_angle_gamma   50.39994987
_symmetry_Int_Tables_number   1
_chemical_formula_structural   Sm2Te3
_chemical_formula_sum   'Sm16 Te24'
_cell_volume   1269.47623831
_cell_formula_units_Z   8
loop_
 _symmetry_equiv_pos_site_id
 _symmetry_equiv_pos_as_xyz
  1  'x, y, z'
loop_
 _atom_site_type_symbol
 _atom_site_label
 _atom_site_symmetry_multiplicity
 _atom_site_fract_x
 _atom_site_fract_y
 _atom_site_fract_z
 _atom_site_occupancy
  Sm  Sm0  1  0.58199100  0.08199100  0.50000000  1
  Sm  Sm1  1  0.37500000  0.74393500  0.86893500  1
  Sm  Sm2  1  0.83884500  0.95284000  0.37340800  1
  Sm  Sm3  1  0.16800900  0.16800900  0.00000000  1
  Sm  Sm4  1  0.57943200  0.46543700  0.62659200  1
  Sm  Sm5  1  0.87500000  0.50606500  0.13106500  1
  Sm  Sm6  1  0.04716000  0.42056800  0.88600500  1
  Sm  Sm7  1  0.83199100  0.83199100  0.00000000  1
  Sm  Sm8  1  0.49393500  0.62500000  0.36893500  1
  Sm  Sm9  1  0.53456300  0.16115500  0.11399500  1
  Sm  Sm10  1  0.25606500  0.12500000  0.63106500  1
  Sm  Sm11  1  0.91800900  0.41800900  0.50000000  1
  Sm  Sm12  1  0.70284000  0.08884500  0.87340800  1
  Sm  Sm13  1  0.17056800  0.29716000  0.38600500  1
  Sm  Sm14  1  0.21543700  0.82943200  0.12659200  1
  Sm  Sm15  1  0.91115500  0.78456300  0.61399500  1
  Te  Te16  1  0.52878900  0.42414100  0.74837500  1
  Te  Te17  1  0.24115500  0.99380100  0.10101200  1
  Te  Te18  1  0.50884500  0.10985700  0.25264600  1
  Te  Te19  1  0.89279000  0.14014300  0.89898800  1
  Te  Te20  1  0.85721000  0.25619900  0.74735400  1
  Te  Te21  1  0.22121100  0.46958600  0.39535200  1
  Te  Te22  1  0.67576600  0.78041400  0.25162500  1
  Te  Te23  1  0.07423400  0.82585900  0.60464800  1
  Te  Te24  1  0.18544700  0.09173800  0.74477400  1
  Te  Te25  1  0.90826200  0.65303600  0.09370900  1
  Te  Te26  1  0.55932700  0.81455300  0.90629100  1
  Te  Te27  1  0.17414100  0.77878900  0.24837500  1
  Te  Te28  1  0.53041400  0.92576600  0.75162500  1
  Te  Te29  1  0.89014300  0.14279000  0.39898800  1
  Te  Te30  1  0.34696400  0.44067300  0.25522600  1
  Te  Te31  1  0.74380100  0.49115500  0.60101200  1
  Te  Te32  1  0.85985700  0.75884500  0.75264600  1
  Te  Te33  1  0.57585900  0.32423400  0.10464800  1
  Te  Te34  1  0.21958600  0.47121100  0.89535200  1
  Te  Te35  1  0.84173800  0.43544700  0.24477400  1
  Te  Te36  1  0.19067300  0.59696400  0.75522600  1
  Te  Te37  1  0.00619900  0.10721000  0.24735400  1
  Te  Te38  1  0.56455300  0.80932700  0.40629100  1
  Te  Te39  1  0.40303600  0.15826200  0.59370900  1
