# generated using pymatgen
data_NbTe2(SeI3)2
_symmetry_space_group_name_H-M   'P 1'
_cell_length_a   11.54993700
_cell_length_b   12.30994538
_cell_length_c   15.90818891
_cell_angle_alpha   98.11624576
_cell_angle_beta   95.68527462
_cell_angle_gamma   117.71363625
_symmetry_Int_Tables_number   1
_chemical_formula_structural   NbTe2(SeI3)2
_chemical_formula_sum   'Nb4 Te8 Se8 I24'
_cell_volume   1946.96080429
_cell_formula_units_Z   4
loop_
 _symmetry_equiv_pos_site_id
 _symmetry_equiv_pos_as_xyz
  1  'x, y, z'
loop_
 _atom_site_type_symbol
 _atom_site_label
 _atom_site_symmetry_multiplicity
 _atom_site_fract_x
 _atom_site_fract_y
 _atom_site_fract_z
 _atom_site_occupancy
  Nb  Nb0  1  0.66419000  0.41588700  0.25022300  1
  Nb  Nb1  1  0.52942400  0.49155700  0.75049800  1
  Nb  Nb2  1  0.33581000  0.58411300  0.74977700  1
  Nb  Nb3  1  0.47057600  0.50844300  0.24950200  1
  Te  Te4  1  0.45517100  0.22548500  0.73927900  1
  Te  Te5  1  0.59380600  0.15240400  0.24797000  1
  Te  Te6  1  0.95095500  0.57572900  0.25394100  1
  Te  Te7  1  0.81798000  0.65159100  0.76219600  1
  Te  Te8  1  0.40619400  0.84759600  0.75203000  1
  Te  Te9  1  0.54482900  0.77451500  0.26072100  1
  Te  Te10  1  0.18202000  0.34840900  0.23780400  1
  Te  Te11  1  0.04904500  0.42427100  0.74605900  1
  Se  Se12  1  0.62530300  0.53466000  0.13359800  1
  Se  Se13  1  0.50839000  0.38875700  0.36550400  1
  Se  Se14  1  0.37469700  0.46534000  0.86640200  1
  Se  Se15  1  0.49161000  0.61124300  0.63449600  1
  Se  Se16  1  0.45327400  0.32991600  0.12671600  1
  Se  Se17  1  0.68055300  0.59324100  0.37318900  1
  Se  Se18  1  0.31944700  0.40675900  0.62681100  1
  Se  Se19  1  0.54672600  0.67008400  0.87328400  1
  I  I20  1  0.70635000  0.86781300  0.14014300  1
  I  I21  1  0.94345800  0.21853200  0.60518600  1
  I  I22  1  0.13991700  0.19926900  0.36051700  1
  I  I23  1  0.84168600  0.38076800  0.37967300  1
  I  I24  1  0.98316000  0.70413300  0.11828100  1
  I  I25  1  0.22307800  0.68791600  0.87863400  1
  I  I26  1  0.15831400  0.61923200  0.62032700  1
  I  I27  1  0.77692200  0.31208400  0.12136600  1
  I  I28  1  0.25803200  0.07697500  0.58989200  1
  I  I29  1  0.54256800  0.92402900  0.61681000  1
  I  I30  1  0.38152700  0.99683600  0.11100500  1
  I  I31  1  0.29365000  0.13218700  0.85985700  1
  I  I32  1  0.05654200  0.78146800  0.39481400  1
  I  I33  1  0.74196800  0.92302500  0.41010800  1
  I  I34  1  0.69754700  0.44422500  0.87866000  1
  I  I35  1  0.30245300  0.55577500  0.12134000  1
  I  I36  1  0.92627900  0.84718800  0.91272600  1
  I  I37  1  0.86008300  0.80073100  0.63948300  1
  I  I38  1  0.45743200  0.07597100  0.38319000  1
  I  I39  1  0.07372100  0.15281200  0.08727400  1
  I  I40  1  0.65039900  0.39577700  0.62289900  1
  I  I41  1  0.34960100  0.60422300  0.37710100  1
  I  I42  1  0.01684000  0.29586700  0.88171900  1
  I  I43  1  0.61847300  0.00316400  0.88899500  1
