# generated using pymatgen
data_EuMoClO4
_symmetry_space_group_name_H-M   'P 1'
_cell_length_a   6.50126234
_cell_length_b   6.50126234
_cell_length_c   6.98217287
_cell_angle_alpha   76.42582066
_cell_angle_beta   76.42582066
_cell_angle_gamma   70.55333556
_symmetry_Int_Tables_number   1
_chemical_formula_structural   EuMoClO4
_chemical_formula_sum   'Eu2 Mo2 Cl2 O8'
_cell_volume   266.52751801
_cell_formula_units_Z   2
loop_
 _symmetry_equiv_pos_site_id
 _symmetry_equiv_pos_as_xyz
  1  'x, y, z'
loop_
 _atom_site_type_symbol
 _atom_site_label
 _atom_site_symmetry_multiplicity
 _atom_site_fract_x
 _atom_site_fract_y
 _atom_site_fract_z
 _atom_site_occupancy
  Eu  Eu0  1  0.22547300  0.22547300  0.88377700  1
  Eu  Eu1  1  0.77452700  0.77452700  0.11622300  1
  Mo  Mo2  1  0.36371900  0.36371900  0.26691000  1
  Mo  Mo3  1  0.63628100  0.63628100  0.73309000  1
  Cl  Cl4  1  0.98931000  0.98931000  0.76166900  1
  Cl  Cl5  1  0.01069000  0.01069000  0.23833100  1
  O  O6  1  0.49106500  0.11685200  0.15344500  1
  O  O7  1  0.46141900  0.46141900  0.79393200  1
  O  O8  1  0.11685200  0.49106500  0.15344500  1
  O  O9  1  0.29410800  0.29410800  0.53019300  1
  O  O10  1  0.50893500  0.88314800  0.84655500  1
  O  O11  1  0.88314800  0.50893500  0.84655500  1
  O  O12  1  0.70589200  0.70589200  0.46980700  1
  O  O13  1  0.53858100  0.53858100  0.20606800  1
