# generated using pymatgen
data_K2Ba(Ge4O9)2
_symmetry_space_group_name_H-M   'P 1'
_cell_length_a   11.90796458
_cell_length_b   11.90796458
_cell_length_c   19.58686600
_cell_angle_alpha   90.00000000
_cell_angle_beta   90.00000000
_cell_angle_gamma   120.00000322
_symmetry_Int_Tables_number   1
_chemical_formula_structural   K2Ba(Ge4O9)2
_chemical_formula_sum   'K12 Ba6 Ge48 O108'
_cell_volume   2405.30768073
_cell_formula_units_Z   6
loop_
 _symmetry_equiv_pos_site_id
 _symmetry_equiv_pos_as_xyz
  1  'x, y, z'
loop_
 _atom_site_type_symbol
 _atom_site_label
 _atom_site_symmetry_multiplicity
 _atom_site_fract_x
 _atom_site_fract_y
 _atom_site_fract_z
 _atom_site_occupancy
  K  K0  1  0.66267900  0.99829800  0.53934900  1
  K  K1  1  0.00170200  0.66438200  0.53934900  1
  K  K2  1  0.99829800  0.33561800  0.46065100  1
  K  K3  1  0.66438200  0.66267900  0.46065100  1
  K  K4  1  0.33561800  0.99829800  0.03934900  1
  K  K5  1  0.00170200  0.33732100  0.03934900  1
  K  K6  1  0.33732100  0.33561800  0.96065100  1
  K  K7  1  0.66267900  0.66438200  0.03934900  1
  K  K8  1  0.66438200  0.00170200  0.96065100  1
  K  K9  1  0.33561800  0.33732100  0.53934900  1
  K  K10  1  0.33732100  0.00170200  0.46065100  1
  K  K11  1  0.99829800  0.66267900  0.96065100  1
  Ba  Ba12  1  0.33513400  0.00000000  0.25000000  1
  Ba  Ba13  1  0.66486600  0.00000000  0.75000000  1
  Ba  Ba14  1  0.66486600  0.66486600  0.25000000  1
  Ba  Ba15  1  0.33513400  0.33513400  0.75000000  1
  Ba  Ba16  1  0.00000000  0.33513400  0.25000000  1
  Ba  Ba17  1  0.00000000  0.66486600  0.75000000  1
  Ge  Ge18  1  0.14481700  0.66155200  0.14924100  1
  Ge  Ge19  1  0.33844800  0.85518300  0.64924100  1
  Ge  Ge20  1  0.66155200  0.51673500  0.85075900  1
  Ge  Ge21  1  0.15484900  0.66641900  0.39126400  1
  Ge  Ge22  1  0.17780700  0.00360500  0.87267500  1
  Ge  Ge23  1  0.00360500  0.82579800  0.12732500  1
  Ge  Ge24  1  0.17420200  0.17780700  0.12732500  1
  Ge  Ge25  1  0.00360500  0.17780700  0.62732500  1
  Ge  Ge26  1  0.17780700  0.17420200  0.37267500  1
  Ge  Ge27  1  0.33333300  0.66666700  0.02223100  1
  Ge  Ge28  1  0.84515100  0.33358100  0.60873600  1
  Ge  Ge29  1  0.33358100  0.48843000  0.39126400  1
  Ge  Ge30  1  0.66641900  0.51157000  0.60873600  1
  Ge  Ge31  1  0.66641900  0.15484900  0.10873600  1
  Ge  Ge32  1  0.48843000  0.33358100  0.10873600  1
  Ge  Ge33  1  0.99639500  0.82219300  0.37267500  1
  Ge  Ge34  1  0.66666700  0.33333300  0.72794500  1
  Ge  Ge35  1  0.82219300  0.82579800  0.62732500  1
  Ge  Ge36  1  0.17420200  0.99639500  0.62732500  1
  Ge  Ge37  1  0.33844800  0.48326500  0.14924100  1
  Ge  Ge38  1  0.33333300  0.66666700  0.52223100  1
  Ge  Ge39  1  0.33358100  0.84515100  0.89126400  1
  Ge  Ge40  1  0.48326500  0.14481700  0.85075900  1
  Ge  Ge41  1  0.51673500  0.85518300  0.14924100  1
  Ge  Ge42  1  0.00000000  0.00000000  0.25000000  1
  Ge  Ge43  1  0.48326500  0.33844800  0.35075900  1
  Ge  Ge44  1  0.14481700  0.48326500  0.64924100  1
  Ge  Ge45  1  0.33333300  0.66666700  0.27205500  1
  Ge  Ge46  1  0.82579800  0.82219300  0.87267500  1
  Ge  Ge47  1  0.82219300  0.99639500  0.12732500  1
  Ge  Ge48  1  0.15484900  0.48843000  0.89126400  1
  Ge  Ge49  1  0.66666700  0.33333300  0.47776900  1
  Ge  Ge50  1  0.48843000  0.15484900  0.60873600  1
  Ge  Ge51  1  0.00000000  0.00000000  0.00000000  1
  Ge  Ge52  1  0.00000000  0.00000000  0.50000000  1
  Ge  Ge53  1  0.85518300  0.33844800  0.85075900  1
  Ge  Ge54  1  0.66666700  0.33333300  0.22794500  1
  Ge  Ge55  1  0.84515100  0.51157000  0.10873600  1
  Ge  Ge56  1  0.33333300  0.66666700  0.77205500  1
  Ge  Ge57  1  0.66666700  0.33333300  0.97776900  1
  Ge  Ge58  1  0.51157000  0.84515100  0.39126400  1
  Ge  Ge59  1  0.00000000  0.00000000  0.75000000  1
  Ge  Ge60  1  0.51157000  0.66641900  0.89126400  1
  Ge  Ge61  1  0.82579800  0.00360500  0.37267500  1
  Ge  Ge62  1  0.51673500  0.66155200  0.64924100  1
  Ge  Ge63  1  0.85518300  0.51673500  0.35075900  1
  Ge  Ge64  1  0.99639500  0.17420200  0.87267500  1
  Ge  Ge65  1  0.66155200  0.14481700  0.35075900  1
  O  O66  1  0.15152500  0.06764000  0.44142100  1
  O  O67  1  0.99117800  0.51561500  0.13591400  1
  O  O68  1  0.12067600  0.32548400  0.67251300  1
  O  O69  1  0.78296700  0.10723700  0.08452900  1
  O  O70  1  0.58960300  0.40664800  0.78259000  1
  O  O71  1  0.39509400  0.81882200  0.96725500  1
  O  O72  1  0.48438500  0.47556300  0.13591400  1
  O  O73  1  0.75695700  0.27352500  0.17091000  1
  O  O74  1  0.67573000  0.89276300  0.41547100  1
  O  O75  1  0.15152500  0.08388600  0.94142100  1
  O  O76  1  0.08388600  0.15152500  0.55857900  1
  O  O77  1  0.48438500  0.00882200  0.63591400  1
  O  O78  1  0.79519200  0.67451600  0.82748700  1
  O  O79  1  0.06764000  0.91611400  0.55857900  1
  O  O80  1  0.06764000  0.15152500  0.05857900  1
  O  O81  1  0.18117800  0.60490600  0.46725500  1
  O  O82  1  0.81704500  0.41039700  0.78259000  1
  O  O83  1  0.51328300  0.24078900  0.92363800  1
  O  O84  1  0.12067600  0.79519200  0.17251300  1
  O  O85  1  0.27352500  0.75695700  0.32909000  1
  O  O86  1  0.51328300  0.27249400  0.42363800  1
  O  O87  1  0.93676400  0.84888800  0.69193800  1
  O  O88  1  0.18295500  0.59335200  0.71741000  1
  O  O89  1  0.79519200  0.12067600  0.32748700  1
  O  O90  1  0.93676400  0.08787600  0.19193800  1
  O  O91  1  0.32548400  0.20480800  0.32748700  1
  O  O92  1  0.81882200  0.42372800  0.03274500  1
  O  O93  1  0.57627200  0.18117800  0.53274500  1
  O  O94  1  0.24078900  0.51328300  0.57636200  1
  O  O95  1  0.21703300  0.32427000  0.41547100  1
  O  O96  1  0.75695700  0.48343100  0.67091000  1
  O  O97  1  0.57627200  0.39509400  0.03274500  1
  O  O98  1  0.51561500  0.52443700  0.86408600  1
  O  O99  1  0.32427000  0.21703300  0.08452900  1
  O  O100  1  0.15111200  0.08787600  0.69193800  1
  O  O101  1  0.72750600  0.48671700  0.92363800  1
  O  O102  1  0.41039700  0.81704500  0.71741000  1
  O  O103  1  0.72750600  0.24078900  0.42363800  1
  O  O104  1  0.67573000  0.78296700  0.91547100  1
  O  O105  1  0.15111200  0.06323600  0.19193800  1
  O  O106  1  0.47556300  0.99117800  0.86408600  1
  O  O107  1  0.87932400  0.20480800  0.82748700  1
  O  O108  1  0.08388600  0.93236000  0.05857900  1
  O  O109  1  0.48343100  0.72647500  0.32909000  1
  O  O110  1  0.81704500  0.40664800  0.28259000  1
  O  O111  1  0.84847500  0.93236000  0.55857900  1
  O  O112  1  0.40664800  0.58960300  0.71741000  1
  O  O113  1  0.93236000  0.84847500  0.94142100  1
  O  O114  1  0.59335200  0.41039700  0.28259000  1
  O  O115  1  0.60490600  0.18117800  0.03274500  1
  O  O116  1  0.72647500  0.48343100  0.17091000  1
  O  O117  1  0.24304300  0.72647500  0.82909000  1
  O  O118  1  0.24304300  0.51656900  0.32909000  1
  O  O119  1  0.59335200  0.18295500  0.78259000  1
  O  O120  1  0.20480800  0.87932400  0.67251300  1
  O  O121  1  0.52443700  0.51561500  0.63591400  1
  O  O122  1  0.40664800  0.81704500  0.21741000  1
  O  O123  1  0.27249400  0.75921100  0.57636200  1
  O  O124  1  0.67451600  0.79519200  0.67251300  1
  O  O125  1  0.20480800  0.32548400  0.17251300  1
  O  O126  1  0.99117800  0.47556300  0.63591400  1
  O  O127  1  0.81882200  0.39509400  0.53274500  1
  O  O128  1  0.75921100  0.27249400  0.92363800  1
  O  O129  1  0.32427000  0.10723700  0.58452900  1
  O  O130  1  0.84888800  0.91212400  0.30806200  1
  O  O131  1  0.60490600  0.42372800  0.53274500  1
  O  O132  1  0.93236000  0.08388600  0.44142100  1
  O  O133  1  0.89276300  0.67573000  0.08452900  1
  O  O134  1  0.08787600  0.15111200  0.80806200  1
  O  O135  1  0.51656900  0.27352500  0.67091000  1
  O  O136  1  0.00882200  0.48438500  0.86408600  1
  O  O137  1  0.18117800  0.57627200  0.96725500  1
  O  O138  1  0.08787600  0.93676400  0.30806200  1
  O  O139  1  0.47556300  0.48438500  0.36408600  1
  O  O140  1  0.06323600  0.91212400  0.80806200  1
  O  O141  1  0.32548400  0.12067600  0.82748700  1
  O  O142  1  0.91611400  0.84847500  0.44142100  1
  O  O143  1  0.91212400  0.06323600  0.69193800  1
  O  O144  1  0.84847500  0.91611400  0.05857900  1
  O  O145  1  0.42372800  0.60490600  0.96725500  1
  O  O146  1  0.51561500  0.99117800  0.36408600  1
  O  O147  1  0.91212400  0.84888800  0.19193800  1
  O  O148  1  0.21703300  0.89276300  0.91547100  1
  O  O149  1  0.27249400  0.51328300  0.07636200  1
  O  O150  1  0.58960300  0.18295500  0.28259000  1
  O  O151  1  0.10723700  0.78296700  0.41547100  1
  O  O152  1  0.41039700  0.59335200  0.21741000  1
  O  O153  1  0.06323600  0.15111200  0.30806200  1
  O  O154  1  0.48343100  0.75695700  0.82909000  1
  O  O155  1  0.42372800  0.81882200  0.46725500  1
  O  O156  1  0.48671700  0.75921100  0.07636200  1
  O  O157  1  0.51656900  0.24304300  0.17091000  1
  O  O158  1  0.89276300  0.21703300  0.58452900  1
  O  O159  1  0.72647500  0.24304300  0.67091000  1
  O  O160  1  0.87932400  0.67451600  0.32748700  1
  O  O161  1  0.91611400  0.06764000  0.94142100  1
  O  O162  1  0.39509400  0.57627200  0.46725500  1
  O  O163  1  0.78296700  0.67573000  0.58452900  1
  O  O164  1  0.27352500  0.51656900  0.82909000  1
  O  O165  1  0.24078900  0.72750600  0.07636200  1
  O  O166  1  0.67451600  0.87932400  0.17251300  1
  O  O167  1  0.75921100  0.48671700  0.42363800  1
  O  O168  1  0.10723700  0.32427000  0.91547100  1
  O  O169  1  0.84888800  0.93676400  0.80806200  1
  O  O170  1  0.52443700  0.00882200  0.13591400  1
  O  O171  1  0.00882200  0.52443700  0.36408600  1
  O  O172  1  0.18295500  0.58960300  0.21741000  1
  O  O173  1  0.48671700  0.72750600  0.57636200  1
