# generated using pymatgen
data_Na2CdO2
_symmetry_space_group_name_H-M   'P 1'
_cell_length_a   9.40939875
_cell_length_b   9.41654842
_cell_length_c   9.40170064
_cell_angle_alpha   109.44225954
_cell_angle_beta   109.66507862
_cell_angle_gamma   109.44296626
_symmetry_Int_Tables_number   1
_chemical_formula_structural   Na2CdO2
_chemical_formula_sum   'Na16 Cd8 O16'
_cell_volume   640.17980195
_cell_formula_units_Z   8
loop_
 _symmetry_equiv_pos_site_id
 _symmetry_equiv_pos_as_xyz
  1  'x, y, z'
loop_
 _atom_site_type_symbol
 _atom_site_label
 _atom_site_symmetry_multiplicity
 _atom_site_fract_x
 _atom_site_fract_y
 _atom_site_fract_z
 _atom_site_occupancy
  Na  Na0  1  0.03481499  0.49013396  0.76821455  1
  Na  Na1  1  0.23354607  0.96584819  0.50957323  1
  Na  Na2  1  0.22748879  0.27490693  0.73830793  1
  Na  Na3  1  0.01116894  0.04557440  0.26967053  1
  Na  Na4  1  0.22518182  0.45036163  0.46364889  1
  Na  Na5  1  0.04302287  0.27283955  0.00915345  1
  Na  Na6  1  0.27970941  0.74648282  0.23247181  1
  Na  Na7  1  0.72876598  0.98601067  0.95014710  1
  Na  Na8  1  0.52951244  0.76225415  0.54198007  1
  Na  Na9  1  0.49989843  0.23617054  0.95702548  1
  Na  Na10  1  0.48992752  0.76827522  0.03965379  1
  Na  Na11  1  0.45009024  0.45878615  0.22540440  1
  Na  Na12  1  0.27797580  0.01543096  0.04962728  1
  Na  Na13  1  0.73216029  0.26743354  0.78352215  1
  Na  Na14  1  0.96626069  0.73305691  0.99629410  1
  Na  Na15  1  0.77533367  0.54886176  0.53515915  1
  Cd  Cd16  1  0.26494345  0.77006113  0.72980520  1
  Cd  Cd17  1  0.54200358  0.53868149  0.77793731  1
  Cd  Cd18  1  0.45610011  0.22413957  0.45140372  1
  Cd  Cd19  1  0.00133452  0.96268455  0.74036281  1
  Cd  Cd20  1  0.76806376  0.72174372  0.25512220  1
  Cd  Cd21  1  0.73016766  0.21699195  0.26132280  1
  Cd  Cd22  1  0.75338920  0.03039663  0.49050427  1
  Cd  Cd23  1  0.97161236  0.51424903  0.23395508  1
  O  O24  1  0.04185510  0.75551622  0.77778881  1
  O  O25  1  0.22574965  0.97559856  0.25781712  1
  O  O26  1  0.98321879  0.98874462  0.49489483  1
  O  O27  1  0.28894201  0.54271514  0.75228913  1
  O  O28  1  0.24254371  0.71432319  0.47261773  1
  O  O29  1  0.24437696  0.21231328  0.96071139  1
  O  O30  1  0.47024503  0.26256025  0.71217044  1
  O  O31  1  0.50366402  0.49213787  0.50793669  1
  O  O32  1  0.54614186  0.75380059  0.29007791  1
  O  O33  1  0.74760304  0.77249826  0.03321995  1
  O  O34  1  0.73966542  0.26955482  0.51460549  1
  O  O35  1  0.72712504  0.47150182  0.24941841  1
  O  O36  1  0.50184222  0.00162666  0.99744235  1
  O  O37  1  0.78883866  0.02796037  0.74129191  1
  O  O38  1  0.95338282  0.25291690  0.21788401  1
  O  O39  1  0.00233309  0.50485600  0.00956652  1
