# generated using pymatgen
data_Rb2V(PO4)2
_symmetry_space_group_name_H-M   'P 1'
_cell_length_a   7.26473400
_cell_length_b   9.52906500
_cell_length_c   13.12103100
_cell_angle_alpha   90.00000000
_cell_angle_beta   90.00000000
_cell_angle_gamma   90.00000000
_symmetry_Int_Tables_number   1
_chemical_formula_structural   Rb2V(PO4)2
_chemical_formula_sum   'Rb8 V4 P8 O32'
_cell_volume   908.31809925
_cell_formula_units_Z   4
loop_
 _symmetry_equiv_pos_site_id
 _symmetry_equiv_pos_as_xyz
  1  'x, y, z'
loop_
 _atom_site_type_symbol
 _atom_site_label
 _atom_site_symmetry_multiplicity
 _atom_site_fract_x
 _atom_site_fract_y
 _atom_site_fract_z
 _atom_site_occupancy
  Rb  Rb0  1  0.25000000  0.57658100  0.90440300  1
  Rb  Rb1  1  0.25000000  0.92341900  0.40440300  1
  Rb  Rb2  1  0.75000000  0.42341900  0.09559700  1
  Rb  Rb3  1  0.75000000  0.07658100  0.59559700  1
  Rb  Rb4  1  0.25000000  0.35920900  0.59374600  1
  Rb  Rb5  1  0.25000000  0.14079100  0.09374600  1
  Rb  Rb6  1  0.75000000  0.64079100  0.40625400  1
  Rb  Rb7  1  0.75000000  0.85920900  0.90625400  1
  V  V8  1  0.25000000  0.00264700  0.79801300  1
  V  V9  1  0.25000000  0.49735300  0.29801300  1
  V  V10  1  0.75000000  0.99735300  0.20198700  1
  V  V11  1  0.75000000  0.50264700  0.70198700  1
  P  P12  1  0.04407100  0.76913500  0.64907000  1
  P  P13  1  0.45592900  0.73086500  0.14907000  1
  P  P14  1  0.54407100  0.23086500  0.35093000  1
  P  P15  1  0.95592900  0.26913500  0.85093000  1
  P  P16  1  0.95592900  0.23086500  0.35093000  1
  P  P17  1  0.54407100  0.26913500  0.85093000  1
  P  P18  1  0.45592900  0.76913500  0.64907000  1
  P  P19  1  0.04407100  0.73086500  0.14907000  1
  O  O20  1  0.25000000  0.93101100  0.91203300  1
  O  O21  1  0.25000000  0.56898900  0.41203300  1
  O  O22  1  0.75000000  0.06898900  0.08796700  1
  O  O23  1  0.75000000  0.43101100  0.58796700  1
  O  O24  1  0.93742400  0.65540700  0.70766200  1
  O  O25  1  0.56257600  0.84459300  0.20766200  1
  O  O26  1  0.43742400  0.34459300  0.29233800  1
  O  O27  1  0.06257600  0.15540700  0.79233800  1
  O  O28  1  0.06257600  0.34459300  0.29233800  1
  O  O29  1  0.43742400  0.15540700  0.79233800  1
  O  O30  1  0.56257600  0.65540700  0.70766200  1
  O  O31  1  0.93742400  0.84459300  0.20766200  1
  O  O32  1  0.97646900  0.80457800  0.54410200  1
  O  O33  1  0.52353100  0.69542200  0.04410200  1
  O  O34  1  0.47646900  0.19542200  0.45589800  1
  O  O35  1  0.02353100  0.30457800  0.95589800  1
  O  O36  1  0.02353100  0.19542200  0.45589800  1
  O  O37  1  0.47646900  0.30457800  0.95589800  1
  O  O38  1  0.52353100  0.80457800  0.54410200  1
  O  O39  1  0.97646900  0.69542200  0.04410200  1
  O  O40  1  0.05925800  0.90042900  0.71892300  1
  O  O41  1  0.44074200  0.59957100  0.21892300  1
  O  O42  1  0.55925800  0.09957100  0.28107700  1
  O  O43  1  0.94074200  0.40042900  0.78107700  1
  O  O44  1  0.94074200  0.09957100  0.28107700  1
  O  O45  1  0.55925800  0.40042900  0.78107700  1
  O  O46  1  0.44074200  0.90042900  0.71892300  1
  O  O47  1  0.05925800  0.59957100  0.21892300  1
  O  O48  1  0.25000000  0.70050700  0.64199300  1
  O  O49  1  0.25000000  0.79949300  0.14199300  1
  O  O50  1  0.75000000  0.29949300  0.35800700  1
  O  O51  1  0.75000000  0.20050700  0.85800700  1
