# generated using pymatgen
data_DyCuSb2
_symmetry_space_group_name_H-M   'P 1'
_cell_length_a   4.32335689
_cell_length_b   4.31838126
_cell_length_c   9.77440098
_cell_angle_alpha   90.41927786
_cell_angle_beta   89.83641096
_cell_angle_gamma   90.15052829
_symmetry_Int_Tables_number   1
_chemical_formula_structural   DyCuSb2
_chemical_formula_sum   'Dy2 Cu2 Sb4'
_cell_volume   182.48087233
_cell_formula_units_Z   2
loop_
 _symmetry_equiv_pos_site_id
 _symmetry_equiv_pos_as_xyz
  1  'x, y, z'
loop_
 _atom_site_type_symbol
 _atom_site_label
 _atom_site_symmetry_multiplicity
 _atom_site_fract_x
 _atom_site_fract_y
 _atom_site_fract_z
 _atom_site_occupancy
  Dy  Dy0  1  0.25136980  0.24882629  0.25026600  1
  Dy  Dy1  1  0.74864614  0.75099555  0.74972431  1
  Cu  Cu2  1  0.74566196  0.24139463  0.00027159  1
  Cu  Cu3  1  0.25397471  0.76076797  0.99975417  1
  Sb  Sb4  1  0.24780647  0.25527203  0.83854772  1
  Sb  Sb5  1  0.75238028  0.74495423  0.16142524  1
  Sb  Sb6  1  0.25010837  0.74901866  0.50000350  1
  Sb  Sb7  1  0.75005227  0.24877065  0.50000747  1
