# generated using pymatgen
data_Ba5SrNd2Fe4O15
_symmetry_space_group_name_H-M   'P 1'
_cell_length_a   11.89981940
_cell_length_b   11.89981940
_cell_length_c   14.24861108
_cell_angle_alpha   89.77673073
_cell_angle_beta   89.77673073
_cell_angle_gamma   59.88792911
_symmetry_Int_Tables_number   1
_chemical_formula_structural   Ba5SrNd2Fe4O15
_chemical_formula_sum   'Ba20 Sr4 Nd8 Fe16 O60'
_cell_volume   1745.37180265
_cell_formula_units_Z   4
loop_
 _symmetry_equiv_pos_site_id
 _symmetry_equiv_pos_as_xyz
  1  'x, y, z'
loop_
 _atom_site_type_symbol
 _atom_site_label
 _atom_site_symmetry_multiplicity
 _atom_site_fract_x
 _atom_site_fract_y
 _atom_site_fract_z
 _atom_site_occupancy
  Ba  Ba0  1  0.00137600  0.00069200  0.50320700  1
  Ba  Ba1  1  0.00118100  0.99890000  0.25334600  1
  Ba  Ba2  1  0.17281400  0.17537000  0.91854800  1
  Ba  Ba3  1  0.17537000  0.17281400  0.41854800  1
  Ba  Ba4  1  0.00069200  0.00137600  0.00320700  1
  Ba  Ba5  1  0.17496200  0.65147000  0.91912000  1
  Ba  Ba6  1  0.17624100  0.65168900  0.41527200  1
  Ba  Ba7  1  0.33351600  0.33501300  0.25978300  1
  Ba  Ba8  1  0.33501300  0.33351600  0.75978300  1
  Ba  Ba9  1  0.65168900  0.17624100  0.91527200  1
  Ba  Ba10  1  0.65147000  0.17496200  0.41912000  1
  Ba  Ba11  1  0.34868500  0.82547900  0.66820500  1
  Ba  Ba12  1  0.34875600  0.82286900  0.16780800  1
  Ba  Ba13  1  0.82286900  0.34875600  0.66780800  1
  Ba  Ba14  1  0.82547900  0.34868500  0.16820500  1
  Ba  Ba15  1  0.99890000  0.00118100  0.75334600  1
  Ba  Ba16  1  0.66464700  0.66907300  0.50889700  1
  Ba  Ba17  1  0.66907300  0.66464700  0.00889700  1
  Ba  Ba18  1  0.82292600  0.82864300  0.66561000  1
  Ba  Ba19  1  0.82864300  0.82292600  0.16561000  1
  Sr  Sr20  1  0.04399700  0.47694500  0.08156600  1
  Sr  Sr21  1  0.47694500  0.04399700  0.58156600  1
  Sr  Sr22  1  0.52045600  0.52273100  0.83219800  1
  Sr  Sr23  1  0.52273100  0.52045600  0.33219800  1
  Nd  Nd24  1  0.04265400  0.47854300  0.58123900  1
  Nd  Nd25  1  0.47854300  0.04265400  0.08123900  1
  Nd  Nd26  1  0.47726700  0.47904400  0.58269700  1
  Nd  Nd27  1  0.47904400  0.47726700  0.08269700  1
  Nd  Nd28  1  0.52119000  0.95694900  0.83033300  1
  Nd  Nd29  1  0.52223600  0.95620200  0.33346400  1
  Nd  Nd30  1  0.95620200  0.52223600  0.83346400  1
  Nd  Nd31  1  0.95694900  0.52119000  0.33033300  1
  Fe  Fe32  1  0.17989300  0.18102300  0.67153000  1
  Fe  Fe33  1  0.18102300  0.17989300  0.17153000  1
  Fe  Fe34  1  0.33214500  0.33233800  0.98694300  1
  Fe  Fe35  1  0.33233800  0.33214500  0.48694300  1
  Fe  Fe36  1  0.17820100  0.63944100  0.16852000  1
  Fe  Fe37  1  0.17568100  0.64268000  0.66801900  1
  Fe  Fe38  1  0.63944100  0.17820100  0.66852000  1
  Fe  Fe39  1  0.64268000  0.17568100  0.16801900  1
  Fe  Fe40  1  0.36024400  0.81995000  0.92115400  1
  Fe  Fe41  1  0.36005200  0.81848300  0.41855600  1
  Fe  Fe42  1  0.66690700  0.66523500  0.73609300  1
  Fe  Fe43  1  0.66523500  0.66690700  0.23609300  1
  Fe  Fe44  1  0.81995000  0.36024400  0.42115400  1
  Fe  Fe45  1  0.81848300  0.36005200  0.91855600  1
  Fe  Fe46  1  0.81937600  0.82259500  0.91765200  1
  Fe  Fe47  1  0.82259500  0.81937600  0.41765200  1
  O  O48  1  0.09771300  0.09668800  0.62107400  1
  O  O49  1  0.09668800  0.09771300  0.12107400  1
  O  O50  1  0.06275300  0.33510800  0.73687200  1
  O  O51  1  0.06848800  0.32770600  0.24261700  1
  O  O52  1  0.33510800  0.06275300  0.23687200  1
  O  O53  1  0.32770600  0.06848800  0.74261700  1
  O  O54  1  0.06101100  0.60343900  0.73481700  1
  O  O55  1  0.06496200  0.60634600  0.24219800  1
  O  O56  1  0.24117500  0.25679300  0.57942400  1
  O  O57  1  0.25679300  0.24117500  0.07942400  1
  O  O58  1  0.17012200  0.41375000  0.91082700  1
  O  O59  1  0.16344900  0.41737700  0.41651700  1
  O  O60  1  0.08999500  0.81112000  0.62157500  1
  O  O61  1  0.09194100  0.80691500  0.11813800  1
  O  O62  1  0.41737700  0.16344900  0.91651700  1
  O  O63  1  0.25535900  0.49884300  0.07929700  1
  O  O64  1  0.24365800  0.50425900  0.57778100  1
  O  O65  1  0.41375000  0.17012200  0.41082700  1
  O  O66  1  0.41595500  0.41411400  0.91894200  1
  O  O67  1  0.41411400  0.41595500  0.41894200  1
  O  O68  1  0.50425900  0.24365800  0.07778100  1
  O  O69  1  0.49884300  0.25535900  0.57929700  1
  O  O70  1  0.33067000  0.60247600  0.72907500  1
  O  O71  1  0.33036700  0.60433000  0.23160600  1
  O  O72  1  0.19386600  0.90164200  0.86987700  1
  O  O73  1  0.19324700  0.89991700  0.36942600  1
  O  O74  1  0.60343900  0.06101100  0.23481700  1
  O  O75  1  0.60634600  0.06496200  0.74219800  1
  O  O76  1  0.39356200  0.67202700  0.99303900  1
  O  O77  1  0.39495900  0.66974100  0.49197100  1
  O  O78  1  0.60247600  0.33067000  0.22907500  1
  O  O79  1  0.60433000  0.33036700  0.73160600  1
  O  O80  1  0.39748700  0.93538900  0.98715200  1
  O  O81  1  0.39751300  0.93396300  0.47944000  1
  O  O82  1  0.80691500  0.09194100  0.61813800  1
  O  O83  1  0.81112000  0.08999500  0.12157500  1
  O  O84  1  0.66974100  0.39495900  0.99197100  1
  O  O85  1  0.67202700  0.39356200  0.49303900  1
  O  O86  1  0.49764200  0.75779700  0.82947200  1
  O  O87  1  0.50165000  0.75430400  0.32744700  1
  O  O88  1  0.58462200  0.58530900  0.16138800  1
  O  O89  1  0.58530900  0.58462200  0.66138800  1
  O  O90  1  0.58240800  0.83572900  0.16535800  1
  O  O91  1  0.58547900  0.83049800  0.66817000  1
  O  O92  1  0.89991700  0.19324700  0.86942600  1
  O  O93  1  0.90164200  0.19386600  0.36987700  1
  O  O94  1  0.75430400  0.50165000  0.82744700  1
  O  O95  1  0.75779700  0.49764200  0.32947200  1
  O  O96  1  0.83049800  0.58547900  0.16817000  1
  O  O97  1  0.83572900  0.58240800  0.66535800  1
  O  O98  1  0.75093800  0.75289200  0.82662500  1
  O  O99  1  0.75289200  0.75093800  0.32662500  1
  O  O100  1  0.93396300  0.39751300  0.97944000  1
  O  O101  1  0.93538900  0.39748700  0.48715200  1
  O  O102  1  0.66419800  0.93524800  0.98392800  1
  O  O103  1  0.66851400  0.93444900  0.47867800  1
  O  O104  1  0.93444900  0.66851400  0.97867800  1
  O  O105  1  0.93524800  0.66419800  0.48392800  1
  O  O106  1  0.90363500  0.90773000  0.87201100  1
  O  O107  1  0.90773000  0.90363500  0.37201100  1
