# generated using pymatgen
data_EuGe2Ir
_symmetry_space_group_name_H-M   'P 1'
_cell_length_a   9.04240988
_cell_length_b   9.04240988
_cell_length_c   4.30626000
_cell_angle_alpha   90.00000000
_cell_angle_beta   90.00000000
_cell_angle_gamma   151.29549962
_symmetry_Int_Tables_number   1
_chemical_formula_structural   EuGe2Ir
_chemical_formula_sum   'Eu2 Ge4 Ir2'
_cell_volume   169.11196435
_cell_formula_units_Z   2
loop_
 _symmetry_equiv_pos_site_id
 _symmetry_equiv_pos_as_xyz
  1  'x, y, z'
loop_
 _atom_site_type_symbol
 _atom_site_label
 _atom_site_symmetry_multiplicity
 _atom_site_fract_x
 _atom_site_fract_y
 _atom_site_fract_z
 _atom_site_occupancy
  Eu  Eu0  1  0.89337200  0.10662800  0.75000000  1
  Eu  Eu1  1  0.10662800  0.89337200  0.25000000  1
  Ge  Ge2  1  0.45883700  0.54116300  0.25000000  1
  Ge  Ge3  1  0.54116300  0.45883700  0.75000000  1
  Ge  Ge4  1  0.24775800  0.75224200  0.75000000  1
  Ge  Ge5  1  0.75224200  0.24775800  0.25000000  1
  Ir  Ir6  1  0.67994300  0.32005700  0.75000000  1
  Ir  Ir7  1  0.32005700  0.67994300  0.25000000  1
