# generated using pymatgen
data_Cu(NO3)2
_symmetry_space_group_name_H-M   'P 1'
_cell_length_a   7.62413200
_cell_length_b   13.10025200
_cell_length_c   14.33757100
_cell_angle_alpha   90.00000000
_cell_angle_beta   90.00000000
_cell_angle_gamma   90.00000000
_symmetry_Int_Tables_number   1
_chemical_formula_structural   Cu(NO3)2
_chemical_formula_sum   'Cu12 N24 O72'
_cell_volume   1432.00864012
_cell_formula_units_Z   12
loop_
 _symmetry_equiv_pos_site_id
 _symmetry_equiv_pos_as_xyz
  1  'x, y, z'
loop_
 _atom_site_type_symbol
 _atom_site_label
 _atom_site_symmetry_multiplicity
 _atom_site_fract_x
 _atom_site_fract_y
 _atom_site_fract_z
 _atom_site_occupancy
  Cu  Cu0  1  0.17513700  0.70308900  0.18574300  1
  Cu  Cu1  1  0.82486300  0.20308900  0.18574300  1
  Cu  Cu2  1  0.67513700  0.79691100  0.68574300  1
  Cu  Cu3  1  0.00000000  0.00000000  0.50000000  1
  Cu  Cu4  1  0.17513700  0.79691100  0.81425700  1
  Cu  Cu5  1  0.67513700  0.70308900  0.31425700  1
  Cu  Cu6  1  0.32486300  0.29691100  0.68574300  1
  Cu  Cu7  1  0.50000000  0.50000000  0.00000000  1
  Cu  Cu8  1  0.00000000  0.50000000  0.50000000  1
  Cu  Cu9  1  0.50000000  0.00000000  0.00000000  1
  Cu  Cu10  1  0.82486300  0.29691100  0.81425700  1
  Cu  Cu11  1  0.32486300  0.20308900  0.31425700  1
  N  N12  1  0.25458400  0.99291000  0.85872100  1
  N  N13  1  0.65630800  0.19521500  0.36090400  1
  N  N14  1  0.75458400  0.50709000  0.35872100  1
  N  N15  1  0.25458400  0.50709000  0.14127900  1
  N  N16  1  0.29239300  0.88092400  0.11259200  1
  N  N17  1  0.24541600  0.00709000  0.35872100  1
  N  N18  1  0.75458400  0.99291000  0.64127900  1
  N  N19  1  0.79239300  0.88092400  0.38740800  1
  N  N20  1  0.70760700  0.38092400  0.11259200  1
  N  N21  1  0.34369200  0.69521500  0.36090400  1
  N  N22  1  0.15630800  0.19521500  0.13909600  1
  N  N23  1  0.65630800  0.30478500  0.63909600  1
  N  N24  1  0.20760700  0.11907600  0.61259200  1
  N  N25  1  0.24541600  0.49291000  0.64127900  1
  N  N26  1  0.34369200  0.80478500  0.63909600  1
  N  N27  1  0.74541600  0.00709000  0.14127900  1
  N  N28  1  0.79239300  0.61907600  0.61259200  1
  N  N29  1  0.84369200  0.80478500  0.86090400  1
  N  N30  1  0.29239300  0.61907600  0.88740800  1
  N  N31  1  0.15630800  0.30478500  0.86090400  1
  N  N32  1  0.70760700  0.11907600  0.88740800  1
  N  N33  1  0.74541600  0.49291000  0.85872100  1
  N  N34  1  0.84369200  0.69521500  0.13909600  1
  N  N35  1  0.20760700  0.38092400  0.38740800  1
  O  O36  1  0.19559900  0.68846900  0.39204500  1
  O  O37  1  0.24269300  0.58487000  0.62618700  1
  O  O38  1  0.98297600  0.68983700  0.08913600  1
  O  O39  1  0.69421700  0.47662200  0.09303900  1
  O  O40  1  0.30440100  0.18846900  0.10795500  1
  O  O41  1  0.80578300  0.97662200  0.40696100  1
  O  O42  1  0.37614400  0.79075200  0.72858100  1
  O  O43  1  0.48297600  0.68983700  0.41086400  1
  O  O44  1  0.85380900  0.57078000  0.40511100  1
  O  O45  1  0.24269300  0.91513000  0.37381300  1
  O  O46  1  0.01702400  0.31016300  0.91086400  1
  O  O47  1  0.30440100  0.31153100  0.89204500  1
  O  O48  1  0.19421700  0.02337800  0.59303900  1
  O  O49  1  0.69559900  0.81153100  0.89204500  1
  O  O50  1  0.14619100  0.42922000  0.59488900  1
  O  O51  1  0.33063300  0.14338200  0.66965800  1
  O  O52  1  0.15536300  0.95152900  0.79737800  1
  O  O53  1  0.39120700  0.68373900  0.92146500  1
  O  O54  1  0.69421700  0.02337800  0.90696100  1
  O  O55  1  0.51702400  0.31016300  0.58913600  1
  O  O56  1  0.30578300  0.52337800  0.90696100  1
  O  O57  1  0.66936700  0.85661800  0.33034200  1
  O  O58  1  0.12385600  0.29075200  0.77141900  1
  O  O59  1  0.10879300  0.31626100  0.42146500  1
  O  O60  1  0.25730700  0.08487000  0.87381300  1
  O  O61  1  0.64619100  0.42922000  0.90511100  1
  O  O62  1  0.75730700  0.08487000  0.62618700  1
  O  O63  1  0.80440100  0.31153100  0.60795500  1
  O  O64  1  0.89120700  0.81626100  0.42146500  1
  O  O65  1  0.16936700  0.64338200  0.83034200  1
  O  O66  1  0.37614400  0.70924800  0.27141900  1
  O  O67  1  0.60879300  0.18373900  0.92146500  1
  O  O68  1  0.19421700  0.47662200  0.40696100  1
  O  O69  1  0.66936700  0.64338200  0.66965800  1
  O  O70  1  0.39120700  0.81626100  0.07853500  1
  O  O71  1  0.84463700  0.04847100  0.20262200  1
  O  O72  1  0.19559900  0.81153100  0.60795500  1
  O  O73  1  0.89120700  0.68373900  0.57853500  1
  O  O74  1  0.65536300  0.54847100  0.29737800  1
  O  O75  1  0.60879300  0.31626100  0.07853500  1
  O  O76  1  0.12385600  0.20924800  0.22858100  1
  O  O77  1  0.98297600  0.81016300  0.91086400  1
  O  O78  1  0.14619100  0.07078000  0.40511100  1
  O  O79  1  0.64619100  0.07078000  0.09488900  1
  O  O80  1  0.10879300  0.18373900  0.57853500  1
  O  O81  1  0.48297600  0.81016300  0.58913600  1
  O  O82  1  0.51702400  0.18983700  0.41086400  1
  O  O83  1  0.30578300  0.97662200  0.09303900  1
  O  O84  1  0.25730700  0.41513000  0.12618700  1
  O  O85  1  0.62385600  0.20924800  0.27141900  1
  O  O86  1  0.35380900  0.57078000  0.09488900  1
  O  O87  1  0.62385600  0.29075200  0.72858100  1
  O  O88  1  0.33063300  0.35661800  0.33034200  1
  O  O89  1  0.75730700  0.41513000  0.37381300  1
  O  O90  1  0.80440100  0.18846900  0.39204500  1
  O  O91  1  0.87614400  0.79075200  0.77141900  1
  O  O92  1  0.65536300  0.95152900  0.70262200  1
  O  O93  1  0.34463700  0.04847100  0.29737800  1
  O  O94  1  0.74269300  0.58487000  0.87381300  1
  O  O95  1  0.34463700  0.45152900  0.70262200  1
  O  O96  1  0.80578300  0.52337800  0.59303900  1
  O  O97  1  0.74269300  0.91513000  0.12618700  1
  O  O98  1  0.16936700  0.85661800  0.16965800  1
  O  O99  1  0.87614400  0.70924800  0.22858100  1
  O  O100  1  0.35380900  0.92922000  0.90511100  1
  O  O101  1  0.15536300  0.54847100  0.20262200  1
  O  O102  1  0.69559900  0.68846900  0.10795500  1
  O  O103  1  0.84463700  0.45152900  0.79737800  1
  O  O104  1  0.01702400  0.18983700  0.08913600  1
  O  O105  1  0.85380900  0.92922000  0.59488900  1
  O  O106  1  0.83063300  0.35661800  0.16965800  1
  O  O107  1  0.83063300  0.14338200  0.83034200  1
