# generated using pymatgen
data_CoH12(ClO3)2
_symmetry_space_group_name_H-M   'P 1'
_cell_length_a   6.29098999
_cell_length_b   9.77170256
_cell_length_c   6.93299390
_cell_angle_alpha   88.50221042
_cell_angle_beta   94.94436988
_cell_angle_gamma   84.01268108
_symmetry_Int_Tables_number   1
_chemical_formula_structural   CoH12(ClO3)2
_chemical_formula_sum   'Co2 H24 Cl4 O12'
_cell_volume   422.02899846
_cell_formula_units_Z   2
loop_
 _symmetry_equiv_pos_site_id
 _symmetry_equiv_pos_as_xyz
  1  'x, y, z'
loop_
 _atom_site_type_symbol
 _atom_site_label
 _atom_site_symmetry_multiplicity
 _atom_site_fract_x
 _atom_site_fract_y
 _atom_site_fract_z
 _atom_site_occupancy
  Co  Co0  1  0.50000000  0.50000000  0.50000000  1
  Co  Co1  1  0.00000000  0.00000000  0.00000000  1
  H  H2  1  0.49793600  0.31721900  0.13015200  1
  H  H3  1  0.99626400  0.81613200  0.63095800  1
  H  H4  1  0.50206400  0.68278100  0.86984800  1
  H  H5  1  0.00373600  0.18386800  0.36904200  1
  H  H6  1  0.48418700  0.78152200  0.04838500  1
  H  H7  1  0.98524500  0.28166300  0.54879400  1
  H  H8  1  0.51581300  0.21847800  0.95161500  1
  H  H9  1  0.01475500  0.71833700  0.45120600  1
  H  H10  1  0.63324100  0.57014500  0.15645600  1
  H  H11  1  0.13292200  0.06927100  0.65446600  1
  H  H12  1  0.82566200  0.76118300  0.95979000  1
  H  H13  1  0.32428100  0.26164800  0.46525500  1
  H  H14  1  0.36675900  0.42985500  0.84354400  1
  H  H15  1  0.86707800  0.93072900  0.34553400  1
  H  H16  1  0.17433800  0.23881700  0.04021000  1
  H  H17  1  0.67571900  0.73835200  0.53474500  1
  H  H18  1  0.06355100  0.72341300  0.05208300  1
  H  H19  1  0.56471900  0.22423100  0.55207900  1
  H  H20  1  0.83500900  0.49408100  0.28182900  1
  H  H21  1  0.33414300  0.99255400  0.78006300  1
  H  H22  1  0.93644900  0.27658700  0.94791700  1
  H  H23  1  0.43528100  0.77576900  0.44792100  1
  H  H24  1  0.16499100  0.50591900  0.71817100  1
  H  H25  1  0.66585700  0.00744600  0.21993700  1
  Cl  Cl26  1  0.16309000  0.56239100  0.28760400  1
  Cl  Cl27  1  0.66460200  0.06254500  0.78653300  1
  Cl  Cl28  1  0.83691000  0.43760900  0.71239600  1
  Cl  Cl29  1  0.33539800  0.93745400  0.21346700  1
  O  O30  1  0.42241700  0.29273500  0.00828300  1
  O  O31  1  0.92173300  0.79280300  0.50800800  1
  O  O32  1  0.57758300  0.70726500  0.99171700  1
  O  O33  1  0.07826700  0.20719700  0.49199200  1
  O  O34  1  0.67783500  0.49475000  0.25682200  1
  O  O35  1  0.17682200  0.99454700  0.75597700  1
  O  O36  1  0.97432500  0.78898200  0.95980000  1
  O  O37  1  0.47266300  0.28976100  0.46188700  1
  O  O38  1  0.32216500  0.50525000  0.74317700  1
  O  O39  1  0.82317800  0.00545300  0.24402400  1
  O  O40  1  0.02567500  0.21101800  0.04020000  1
  O  O41  1  0.52733700  0.71023900  0.53811300  1
