# generated using pymatgen
data_CePaO4
_symmetry_space_group_name_H-M   'P 1'
_cell_length_a   6.69779807
_cell_length_b   6.69779807
_cell_length_c   6.69779807
_cell_angle_alpha   131.49896678
_cell_angle_beta   131.49896678
_cell_angle_gamma   71.02151487
_symmetry_Int_Tables_number   1
_chemical_formula_structural   CePaO4
_chemical_formula_sum   'Ce2 Pa2 O8'
_cell_volume   165.04055008
_cell_formula_units_Z   2
loop_
 _symmetry_equiv_pos_site_id
 _symmetry_equiv_pos_as_xyz
  1  'x, y, z'
loop_
 _atom_site_type_symbol
 _atom_site_label
 _atom_site_symmetry_multiplicity
 _atom_site_fract_x
 _atom_site_fract_y
 _atom_site_fract_z
 _atom_site_occupancy
  Ce  Ce0  1  0.50000000  0.50000000  0.00000000  1
  Ce  Ce1  1  0.25000000  0.75000000  0.50000000  1
  Pa  Pa2  1  0.00000000  0.00000000  0.00000000  1
  Pa  Pa3  1  0.75000000  0.25000000  0.50000000  1
  O  O4  1  0.37500000  0.36156400  0.48656400  1
  O  O5  1  0.87500000  0.88843600  0.51343600  1
  O  O6  1  0.87500000  0.36156400  0.98656400  1
  O  O7  1  0.63843600  0.12500000  0.01343600  1
  O  O8  1  0.37500000  0.88843600  0.01343600  1
  O  O9  1  0.11156400  0.62500000  0.98656400  1
  O  O10  1  0.11156400  0.12500000  0.48656400  1
  O  O11  1  0.63843600  0.62500000  0.51343600  1
