# generated using pymatgen
data_MgCoH16(ClO2)4
_symmetry_space_group_name_H-M   'P 1'
_cell_length_a   6.38858768
_cell_length_b   8.59039667
_cell_length_c   12.25101730
_cell_angle_alpha   87.20748052
_cell_angle_beta   84.24465891
_cell_angle_gamma   81.60959971
_symmetry_Int_Tables_number   1
_chemical_formula_structural   MgCoH16(ClO2)4
_chemical_formula_sum   'Mg2 Co2 H32 Cl8 O16'
_cell_volume   661.39594309
_cell_formula_units_Z   2
loop_
 _symmetry_equiv_pos_site_id
 _symmetry_equiv_pos_as_xyz
  1  'x, y, z'
loop_
 _atom_site_type_symbol
 _atom_site_label
 _atom_site_symmetry_multiplicity
 _atom_site_fract_x
 _atom_site_fract_y
 _atom_site_fract_z
 _atom_site_occupancy
  Mg  Mg0  1  0.50048600  0.49999900  0.25000500  1
  Mg  Mg1  1  0.49951500  0.50000100  0.74999400  1
  Co  Co2  1  0.00000000  0.00000000  0.50000000  1
  Co  Co3  1  0.00000000  0.99999900  0.00000000  1
  H  H4  1  0.38641800  0.93884100  0.38835400  1
  H  H5  1  0.38735700  0.93980600  0.88984300  1
  H  H6  1  0.61264200  0.06019300  0.11015700  1
  H  H7  1  0.61358300  0.06116000  0.61164500  1
  H  H8  1  0.22505000  0.98675700  0.29884800  1
  H  H9  1  0.22727500  0.98874700  0.79983900  1
  H  H10  1  0.77272400  0.01125300  0.20016100  1
  H  H11  1  0.77495000  0.01324300  0.70115200  1
  H  H12  1  0.10856400  0.65763100  0.24044300  1
  H  H13  1  0.10854000  0.65855800  0.74046900  1
  H  H14  1  0.89146000  0.34144200  0.25953100  1
  H  H15  1  0.89143600  0.34236900  0.75955700  1
  H  H16  1  0.15701600  0.67373400  0.36370800  1
  H  H17  1  0.15687200  0.67348300  0.86382600  1
  H  H18  1  0.84312800  0.32651700  0.13617400  1
  H  H19  1  0.84298400  0.32626600  0.63629200  1
  H  H20  1  0.46559900  0.79291200  0.13732900  1
  H  H21  1  0.46534500  0.79333400  0.63833100  1
  H  H22  1  0.53465400  0.20666600  0.36166900  1
  H  H23  1  0.53440100  0.20708700  0.86267100  1
  H  H24  1  0.70623300  0.70940700  0.12034900  1
  H  H25  1  0.70537300  0.70943300  0.62029300  1
  H  H26  1  0.29462700  0.29056700  0.37970700  1
  H  H27  1  0.29376700  0.29059200  0.87965100  1
  H  H28  1  0.67653300  0.69112100  0.37961500  1
  H  H29  1  0.67473100  0.69069000  0.88020800  1
  H  H30  1  0.32527000  0.30931000  0.11979200  1
  H  H31  1  0.32346700  0.30887900  0.62038600  1
  H  H32  1  0.72293800  0.51431800  0.42379000  1
  H  H33  1  0.72227800  0.51383200  0.92358900  1
  H  H34  1  0.27772400  0.48616700  0.07641100  1
  H  H35  1  0.27706200  0.48568200  0.57621100  1
  Cl  Cl36  1  0.03391600  0.71962800  0.06071400  1
  Cl  Cl37  1  0.03491600  0.72008000  0.56054700  1
  Cl  Cl38  1  0.96508300  0.27992100  0.43945300  1
  Cl  Cl39  1  0.96608300  0.28037100  0.93928600  1
  Cl  Cl40  1  0.72779700  0.95107000  0.37355400  1
  Cl  Cl41  1  0.72721900  0.95191600  0.87427300  1
  Cl  Cl42  1  0.27277900  0.04808400  0.12572600  1
  Cl  Cl43  1  0.27220300  0.04893000  0.62644600  1
  O  O44  1  0.23602500  0.94239100  0.37457600  1
  O  O45  1  0.23741300  0.94283600  0.87526600  1
  O  O46  1  0.76258700  0.05716300  0.12473300  1
  O  O47  1  0.76397500  0.05761100  0.62542400  1
  O  O48  1  0.19292500  0.60856700  0.29913800  1
  O  O49  1  0.19222700  0.60853400  0.79913800  1
  O  O50  1  0.80777300  0.39146600  0.20086200  1
  O  O51  1  0.80707600  0.39143300  0.70086200  1
  O  O52  1  0.56228700  0.69744200  0.15464100  1
  O  O53  1  0.56142700  0.69692400  0.65427200  1
  O  O54  1  0.43857200  0.30307600  0.34572800  1
  O  O55  1  0.43771300  0.30255800  0.84535900  1
  O  O56  1  0.62553800  0.58821500  0.38251000  1
  O  O57  1  0.62413100  0.58774500  0.88274700  1
  O  O58  1  0.37587100  0.41225500  0.11725300  1
  O  O59  1  0.37446300  0.41178500  0.61749000  1
