# generated using pymatgen
data_CdH4CN2Cl2O
_symmetry_space_group_name_H-M   'P 1'
_cell_length_a   3.82138900
_cell_length_b   8.29520451
_cell_length_c   10.26117928
_cell_angle_alpha   75.23295538
_cell_angle_beta   82.65746655
_cell_angle_gamma   81.98462222
_symmetry_Int_Tables_number   1
_chemical_formula_structural   CdH4CN2Cl2O
_chemical_formula_sum   'Cd2 H8 C2 N4 Cl4 O2'
_cell_volume   310.00572871
_cell_formula_units_Z   2
loop_
 _symmetry_equiv_pos_site_id
 _symmetry_equiv_pos_as_xyz
  1  'x, y, z'
loop_
 _atom_site_type_symbol
 _atom_site_label
 _atom_site_symmetry_multiplicity
 _atom_site_fract_x
 _atom_site_fract_y
 _atom_site_fract_z
 _atom_site_occupancy
  Cd  Cd0  1  0.26840600  0.61943000  0.82195500  1
  Cd  Cd1  1  0.73159400  0.38057000  0.17804500  1
  H  H2  1  0.90102700  0.96827300  0.87628700  1
  H  H3  1  0.09897300  0.03172700  0.12371300  1
  H  H4  1  0.88949100  0.18287600  0.80129800  1
  H  H5  1  0.11050900  0.81712400  0.19870200  1
  H  H6  1  0.16969200  0.27809700  0.59132300  1
  H  H7  1  0.83030800  0.72190300  0.40867700  1
  H  H8  1  0.40284600  0.13915800  0.50048000  1
  H  H9  1  0.59715400  0.86084200  0.49952000  1
  C  C10  1  0.18936900  0.02906000  0.69111400  1
  C  C11  1  0.81063100  0.97094000  0.30888600  1
  N  N12  1  0.99879300  0.06307400  0.80342700  1
  N  N13  1  0.00120700  0.93692600  0.19657300  1
  N  N14  1  0.28141200  0.15955100  0.59023900  1
  N  N15  1  0.71858800  0.84044900  0.40976100  1
  Cl  Cl16  1  0.68618100  0.69329200  0.98735600  1
  Cl  Cl17  1  0.31381900  0.30670800  0.01264400  1
  Cl  Cl18  1  0.85256600  0.51234400  0.69007100  1
  Cl  Cl19  1  0.14743400  0.48765600  0.30992900  1
  O  O20  1  0.29263700  0.87938300  0.67995700  1
  O  O21  1  0.70736300  0.12061700  0.32004300  1
