# generated using pymatgen
data_Ca2Fe3Sb(PO4)6
_symmetry_space_group_name_H-M   'P 1'
_cell_length_a   8.91176228
_cell_length_b   8.91176228
_cell_length_c   8.91176215
_cell_angle_alpha   58.22929467
_cell_angle_beta   58.22929467
_cell_angle_gamma   58.22929728
_symmetry_Int_Tables_number   1
_chemical_formula_structural   Ca2Fe3Sb(PO4)6
_chemical_formula_sum   'Ca2 Fe3 Sb1 P6 O24'
_cell_volume   480.16476758
_cell_formula_units_Z   1
loop_
 _symmetry_equiv_pos_site_id
 _symmetry_equiv_pos_as_xyz
  1  'x, y, z'
loop_
 _atom_site_type_symbol
 _atom_site_label
 _atom_site_symmetry_multiplicity
 _atom_site_fract_x
 _atom_site_fract_y
 _atom_site_fract_z
 _atom_site_occupancy
  Ca  Ca0  1  0.00566800  0.00566800  0.00566800  1
  Ca  Ca1  1  0.49988500  0.49988500  0.49988500  1
  Fe  Fe2  1  0.64725000  0.64725000  0.64725000  1
  Fe  Fe3  1  0.35190500  0.35190500  0.35190500  1
  Fe  Fe4  1  0.14852700  0.14852700  0.14852700  1
  Sb  Sb5  1  0.85319800  0.85319800  0.85319800  1
  P  P6  1  0.53763800  0.95798200  0.25224500  1
  P  P7  1  0.25224500  0.53763800  0.95798200  1
  P  P8  1  0.95798200  0.25224500  0.53763800  1
  P  P9  1  0.04210100  0.74775200  0.45569400  1
  P  P10  1  0.74775200  0.45569400  0.04210100  1
  P  P11  1  0.45569400  0.04210100  0.74775200  1
  O  O12  1  0.49343800  0.87608500  0.70890600  1
  O  O13  1  0.87608500  0.70890600  0.49343800  1
  O  O14  1  0.73106300  0.93791800  0.07526100  1
  O  O15  1  0.70890600  0.49343800  0.87608500  1
  O  O16  1  0.37951200  0.98997400  0.20502000  1
  O  O17  1  0.56569000  0.77013800  0.41550200  1
  O  O18  1  0.07526100  0.73106300  0.93791800  1
  O  O19  1  0.41550200  0.56569000  0.77013800  1
  O  O20  1  0.77013800  0.41550200  0.56569000  1
  O  O21  1  0.01544500  0.78777800  0.62372400  1
  O  O22  1  0.06075300  0.91977800  0.27395700  1
  O  O23  1  0.78777800  0.62372400  0.01544500  1
  O  O24  1  0.20502000  0.37951200  0.98997400  1
  O  O25  1  0.93791800  0.07526100  0.73106300  1
  O  O26  1  0.98997400  0.20502000  0.37951200  1
  O  O27  1  0.22808300  0.57986400  0.44044300  1
  O  O28  1  0.57986400  0.44044300  0.22808300  1
  O  O29  1  0.91977800  0.27395700  0.06075300  1
  O  O30  1  0.44044300  0.22808300  0.57986400  1
  O  O31  1  0.62372400  0.01544500  0.78777800  1
  O  O32  1  0.28439400  0.51483500  0.12259400  1
  O  O33  1  0.27395700  0.06075300  0.91977800  1
  O  O34  1  0.12259400  0.28439400  0.51483500  1
  O  O35  1  0.51483500  0.12259400  0.28439400  1
