# generated using pymatgen
data_Li9Mn20O40
_symmetry_space_group_name_H-M   'P 1'
_cell_length_a   8.76458700
_cell_length_b   10.18147068
_cell_length_c   10.20042010
_cell_angle_alpha   79.32315383
_cell_angle_beta   64.56382752
_cell_angle_gamma   64.75100868
_symmetry_Int_Tables_number   1
_chemical_formula_structural   Li9Mn20O40
_chemical_formula_sum   'Li9 Mn20 O40'
_cell_volume   743.47773089
_cell_formula_units_Z   1
loop_
 _symmetry_equiv_pos_site_id
 _symmetry_equiv_pos_as_xyz
  1  'x, y, z'
loop_
 _atom_site_type_symbol
 _atom_site_label
 _atom_site_symmetry_multiplicity
 _atom_site_fract_x
 _atom_site_fract_y
 _atom_site_fract_z
 _atom_site_occupancy
  Li  Li0  1  0.42570900  0.84619000  0.55122700  1
  Li  Li1  1  0.81632300  0.64521500  0.95009900  1
  Li  Li2  1  0.21494700  0.45503200  0.34968700  1
  Li  Li3  1  0.97416900  0.95265900  0.85280400  1
  Li  Li4  1  0.62501700  0.25192300  0.74752600  1
  Li  Li5  1  0.37926300  0.75187100  0.25176600  1
  Li  Li6  1  0.78568400  0.54874700  0.64736400  1
  Li  Li7  1  0.17836400  0.35275600  0.05008900  1
  Li  Li8  1  0.57428800  0.15078100  0.44756400  1
  Mn  Mn9  1  0.50504800  0.00013300  0.99809600  1
  Mn  Mn10  1  0.69384200  0.89633300  0.20012500  1
  Mn  Mn11  1  0.89401400  0.80292700  0.39765700  1
  Mn  Mn12  1  0.70459500  0.89995100  0.69714200  1
  Mn  Mn13  1  0.00648200  0.99970900  0.50041800  1
  Mn  Mn14  1  0.09543600  0.69830000  0.59967300  1
  Mn  Mn15  1  0.29911800  0.60252800  0.79825200  1
  Mn  Mn16  1  0.09626200  0.70729100  0.09819400  1
  Mn  Mn17  1  0.41195500  0.79795800  0.89866200  1
  Mn  Mn18  1  0.49808400  0.50277500  0.99982500  1
  Mn  Mn19  1  0.69782100  0.39623700  0.20190900  1
  Mn  Mn20  1  0.79751700  0.59851900  0.29829600  1
  Mn  Mn21  1  0.49761400  0.49827900  0.49826800  1
  Mn  Mn22  1  0.90792200  0.30304800  0.39823300  1
  Mn  Mn23  1  0.10597300  0.19984000  0.60197600  1
  Mn  Mn24  1  0.19290000  0.40321600  0.70213800  1
  Mn  Mn25  1  0.89592700  0.29660600  0.90150600  1
  Mn  Mn26  1  0.30311500  0.10214600  0.80058400  1
  Mn  Mn27  1  0.30449800  0.10167700  0.30640400  1
  Mn  Mn28  1  0.58945700  0.20613800  0.10009600  1
  O  O29  1  0.46943300  0.90146800  0.71313400  1
  O  O30  1  0.29592600  0.99179100  0.98195400  1
  O  O31  1  0.63282000  0.81387500  0.89298200  1
  O  O32  1  0.45986300  0.91832600  0.19490000  1
  O  O33  1  0.83171400  0.70729500  0.11564200  1
  O  O34  1  0.65681500  0.79287700  0.37858600  1
  O  O35  1  0.91662800  0.88692400  0.20268500  1
  O  O36  1  0.01756600  0.61754000  0.29184600  1
  O  O37  1  0.75736900  0.98308300  0.50877800  1
  O  O38  1  0.86429700  0.71479800  0.59441500  1
  O  O39  1  0.13506200  0.80343100  0.41926400  1
  O  O40  1  0.93775900  0.89208600  0.68785200  1
  O  O41  1  0.22993000  0.50832100  0.51923500  1
  O  O42  1  0.05744900  0.59437300  0.78297500  1
  O  O43  1  0.32371400  0.68789200  0.60583600  1
  O  O44  1  0.41590300  0.41372800  0.69493700  1
  O  O45  1  0.18776800  0.79196100  0.90050400  1
  O  O46  1  0.26716100  0.52070300  0.99369500  1
  O  O47  1  0.54139500  0.60601500  0.81721000  1
  O  O48  1  0.36673100  0.69624900  0.07940800  1
  O  O49  1  0.62621900  0.30935000  0.92183000  1
  O  O50  1  0.45628500  0.39718700  0.18059300  1
  O  O51  1  0.72931800  0.48274900  0.00545100  1
  O  O52  1  0.80542700  0.21397300  0.09558900  1
  O  O53  1  0.57724900  0.58583000  0.30439200  1
  O  O54  1  0.64942300  0.31610400  0.39628400  1
  O  O55  1  0.93509200  0.40890800  0.21386400  1
  O  O56  1  0.75959400  0.49847400  0.48023700  1
  O  O57  1  0.07857700  0.10562100  0.31773700  1
  O  O58  1  0.16581400  0.28014000  0.40902800  1
  O  O59  1  0.88935900  0.19686400  0.58722000  1
  O  O60  1  0.25069300  0.01971600  0.49733500  1
  O  O61  1  0.97591100  0.38485700  0.70464100  1
  O  O62  1  0.04955900  0.11687200  0.79260700  1
  O  O63  1  0.32012400  0.20790700  0.61655900  1
  O  O64  1  0.15774400  0.29784600  0.88197000  1
  O  O65  1  0.56540500  0.07775600  0.80435500  1
  O  O66  1  0.37131800  0.18444600  0.10833200  1
  O  O67  1  0.71745900  0.00691600  0.01685600  1
  O  O68  1  0.54440400  0.09438300  0.28322800  1
