# generated using pymatgen
data_NaNb13O33
_symmetry_space_group_name_H-M   'P 1'
_cell_length_a   3.87772700
_cell_length_b   11.60944655
_cell_length_c   15.66350819
_cell_angle_alpha   91.49976675
_cell_angle_beta   89.96849438
_cell_angle_gamma   99.60287884
_symmetry_Int_Tables_number   1
_chemical_formula_structural   NaNb13O33
_chemical_formula_sum   'Na1 Nb13 O33'
_cell_volume   695.01984828
_cell_formula_units_Z   1
loop_
 _symmetry_equiv_pos_site_id
 _symmetry_equiv_pos_as_xyz
  1  'x, y, z'
loop_
 _atom_site_type_symbol
 _atom_site_label
 _atom_site_symmetry_multiplicity
 _atom_site_fract_x
 _atom_site_fract_y
 _atom_site_fract_z
 _atom_site_occupancy
  Na  Na0  1  0.50830300  0.00051000  0.49740000  1
  Nb  Nb1  1  0.14381800  0.27459800  0.46743700  1
  Nb  Nb2  1  0.05646800  0.14055000  0.22878500  1
  Nb  Nb3  1  0.84827700  0.69016400  0.09508800  1
  Nb  Nb4  1  0.91714500  0.85968800  0.77159800  1
  Nb  Nb5  1  0.71100600  0.41558000  0.62531500  1
  Nb  Nb6  1  0.22770100  0.44853500  0.13691400  1
  Nb  Nb7  1  0.09116700  0.17352700  0.67461900  1
  Nb  Nb8  1  0.29401800  0.58587400  0.37396900  1
  Nb  Nb9  1  0.86530700  0.72685700  0.53277000  1
  Nb  Nb10  1  0.77357200  0.55145500  0.86227800  1
  Nb  Nb11  1  0.15189800  0.31096400  0.90385700  1
  Nb  Nb12  1  0.91950000  0.82602300  0.32468700  1
  Nb  Nb13  1  0.01278400  0.00115600  0.99981300  1
  O  O14  1  0.19690400  0.38784500  0.02709200  1
  O  O15  1  0.92022900  0.83755600  0.04973300  1
  O  O16  1  0.24923500  0.50157400  0.86227400  1
  O  O17  1  0.82103900  0.63745900  0.38930700  1
  O  O18  1  0.35082200  0.69654300  0.50561100  1
  O  O19  1  0.03514900  0.06980500  0.12019900  1
  O  O20  1  0.07296600  0.13808600  0.54441100  1
  O  O21  1  0.43438200  0.85972500  0.75527400  1
  O  O22  1  0.01902700  0.02379500  0.70858500  1
  O  O23  1  0.73386100  0.46718900  0.73480300  1
  O  O24  1  0.87469700  0.74274100  0.21323500  1
  O  O25  1  0.10903600  0.20054700  0.36531800  1
  O  O26  1  0.61268900  0.21944900  0.66330300  1
  O  O27  1  0.84840000  0.69445300  0.80515400  1
  O  O28  1  0.07524600  0.16418700  0.95136000  1
  O  O29  1  0.57665100  0.14033700  0.24629200  1
  O  O30  1  0.74991700  0.49822500  0.13728300  1
  O  O31  1  0.18559700  0.36352200  0.61091700  1
  O  O32  1  0.39570000  0.78183400  0.33844100  1
  O  O33  1  0.67966000  0.36081100  0.90000800  1
  O  O34  1  0.93273700  0.86241300  0.45590100  1
  O  O35  1  0.15965300  0.30637800  0.19516300  1
  O  O36  1  0.80217700  0.61219300  0.97231200  1
  O  O37  1  0.65779600  0.30442700  0.49551000  1
  O  O38  1  0.77999100  0.55328500  0.56691000  1
  O  O39  1  0.12608000  0.25580200  0.78733200  1
  O  O40  1  0.22494700  0.44574000  0.43008800  1
  O  O41  1  0.99648300  0.97630700  0.29104600  1
  O  O42  1  0.50018800  0.00145800  0.00026500  1
  O  O43  1  0.26555500  0.53735600  0.26381000  1
  O  O44  1  0.90426500  0.79955800  0.63560700  1
  O  O45  1  0.32115300  0.64072000  0.09822000  1
  O  O46  1  0.96852100  0.92927000  0.88105700  1
