# generated using pymatgen
data_K3Gd3(PS4)4
_symmetry_space_group_name_H-M   'P 1'
_cell_length_a   10.03222971
_cell_length_b   10.03223006
_cell_length_c   14.74725892
_cell_angle_alpha   89.22925817
_cell_angle_beta   89.22925782
_cell_angle_gamma   72.01230118
_symmetry_Int_Tables_number   1
_chemical_formula_structural   K3Gd3(PS4)4
_chemical_formula_sum   'K6 Gd6 P8 S32'
_cell_volume   1411.50628538
_cell_formula_units_Z   2
loop_
 _symmetry_equiv_pos_site_id
 _symmetry_equiv_pos_as_xyz
  1  'x, y, z'
loop_
 _atom_site_type_symbol
 _atom_site_label
 _atom_site_symmetry_multiplicity
 _atom_site_fract_x
 _atom_site_fract_y
 _atom_site_fract_z
 _atom_site_occupancy
  K  K0  1  0.02815000  0.38751800  0.16307900  1
  K  K1  1  0.61248200  0.97185000  0.33692100  1
  K  K2  1  0.38751800  0.02815000  0.66307900  1
  K  K3  1  0.00000000  0.00000000  0.00000000  1
  K  K4  1  0.97185000  0.61248200  0.83692100  1
  K  K5  1  0.00000000  0.00000000  0.50000000  1
  Gd  Gd6  1  0.25359000  0.48555600  0.51180500  1
  Gd  Gd7  1  0.74641000  0.51444400  0.48819500  1
  Gd  Gd8  1  0.48555600  0.25359000  0.01180500  1
  Gd  Gd9  1  0.24922100  0.75077900  0.25000000  1
  Gd  Gd10  1  0.75077900  0.24922100  0.75000000  1
  Gd  Gd11  1  0.51444400  0.74641000  0.98819500  1
  P  P12  1  0.23731700  0.60137000  0.02336500  1
  P  P13  1  0.76268300  0.39863000  0.97663500  1
  P  P14  1  0.39863000  0.76268300  0.47663500  1
  P  P15  1  0.96132400  0.66823200  0.36142100  1
  P  P16  1  0.66823200  0.96132400  0.86142100  1
  P  P17  1  0.60137000  0.23731700  0.52336500  1
  P  P18  1  0.03867600  0.33176800  0.63857900  1
  P  P19  1  0.33176800  0.03867600  0.13857900  1
  S  S20  1  0.27017500  0.74050700  0.58128300  1
  S  S21  1  0.32155100  0.05272500  0.99964000  1
  S  S22  1  0.84344900  0.47214400  0.67111700  1
  S  S23  1  0.05272500  0.32155100  0.49964000  1
  S  S24  1  0.72982500  0.25949300  0.41871700  1
  S  S25  1  0.14382600  0.03912000  0.19455800  1
  S  S26  1  0.52785600  0.15655100  0.82888300  1
  S  S27  1  0.29693900  0.92398800  0.39263400  1
  S  S28  1  0.96088000  0.85617400  0.30544200  1
  S  S29  1  0.15655100  0.52785600  0.32888300  1
  S  S30  1  0.40184100  0.19447400  0.18702000  1
  S  S31  1  0.41578000  0.54542200  0.10416800  1
  S  S32  1  0.45457800  0.58422000  0.39583200  1
  S  S33  1  0.85617400  0.96088000  0.80544200  1
  S  S34  1  0.25949300  0.72982500  0.91871700  1
  S  S35  1  0.70306100  0.07601200  0.60736600  1
  S  S36  1  0.94727500  0.67844900  0.50036000  1
  S  S37  1  0.67844900  0.94727500  0.00036000  1
  S  S38  1  0.92398800  0.29693900  0.89263400  1
  S  S39  1  0.80552600  0.59815900  0.31298000  1
  S  S40  1  0.21189100  0.42070500  0.97429800  1
  S  S41  1  0.57929500  0.78810900  0.52570200  1
  S  S42  1  0.07601200  0.70306100  0.10736600  1
  S  S43  1  0.42070500  0.21189100  0.47429800  1
  S  S44  1  0.03912000  0.14382600  0.69455800  1
  S  S45  1  0.59815900  0.80552600  0.81298000  1
  S  S46  1  0.58422000  0.45457800  0.89583200  1
  S  S47  1  0.54542200  0.41578000  0.60416800  1
  S  S48  1  0.47214400  0.84344900  0.17111700  1
  S  S49  1  0.74050700  0.27017500  0.08128300  1
  S  S50  1  0.78810900  0.57929500  0.02570200  1
  S  S51  1  0.19447400  0.40184100  0.68702000  1
