# generated using pymatgen
data_Mg3In
_symmetry_space_group_name_H-M   'P 1'
_cell_length_a   11.17692294
_cell_length_b   11.17692294
_cell_length_c   11.17692341
_cell_angle_alpha   32.78025496
_cell_angle_beta   32.78025496
_cell_angle_gamma   32.78025346
_symmetry_Int_Tables_number   1
_chemical_formula_structural   Mg3In
_chemical_formula_sum   'Mg12 In4'
_cell_volume   364.10514781
_cell_formula_units_Z   4
loop_
 _symmetry_equiv_pos_site_id
 _symmetry_equiv_pos_as_xyz
  1  'x, y, z'
loop_
 _atom_site_type_symbol
 _atom_site_label
 _atom_site_symmetry_multiplicity
 _atom_site_fract_x
 _atom_site_fract_y
 _atom_site_fract_z
 _atom_site_occupancy
  Mg  Mg0  1  0.87491200  0.37495200  0.87491200  1
  Mg  Mg1  1  0.87491200  0.87491200  0.37495200  1
  Mg  Mg2  1  0.37495200  0.87491200  0.87491200  1
  Mg  Mg3  1  0.29145900  0.79157100  0.29145900  1
  Mg  Mg4  1  0.29145900  0.29145900  0.79157100  1
  Mg  Mg5  1  0.79157100  0.29145900  0.29145900  1
  Mg  Mg6  1  0.70854100  0.20842900  0.70854100  1
  Mg  Mg7  1  0.70854100  0.70854100  0.20842900  1
  Mg  Mg8  1  0.20842900  0.70854100  0.70854100  1
  Mg  Mg9  1  0.12508800  0.62504800  0.12508800  1
  Mg  Mg10  1  0.12508800  0.12508800  0.62504800  1
  Mg  Mg11  1  0.62504800  0.12508800  0.12508800  1
  In  In12  1  0.37482000  0.37482000  0.37482000  1
  In  In13  1  0.62518000  0.62518000  0.62518000  1
  In  In14  1  0.79156600  0.79156600  0.79156600  1
  In  In15  1  0.20843400  0.20843400  0.20843400  1
