# generated using pymatgen
data_Sr2Tl2O5
_symmetry_space_group_name_H-M   'P 1'
_cell_length_a   14.12409900
_cell_length_b   6.09902800
_cell_length_c   7.08522824
_cell_angle_alpha   73.48620609
_cell_angle_beta   90.00000000
_cell_angle_gamma   90.00000000
_symmetry_Int_Tables_number   1
_chemical_formula_structural   Sr2Tl2O5
_chemical_formula_sum   'Sr8 Tl8 O20'
_cell_volume   585.16885694
_cell_formula_units_Z   4
loop_
 _symmetry_equiv_pos_site_id
 _symmetry_equiv_pos_as_xyz
  1  'x, y, z'
loop_
 _atom_site_type_symbol
 _atom_site_label
 _atom_site_symmetry_multiplicity
 _atom_site_fract_x
 _atom_site_fract_y
 _atom_site_fract_z
 _atom_site_occupancy
  Sr  Sr0  1  0.11329800  0.54609100  0.86424300  1
  Sr  Sr1  1  0.76328200  0.93685900  0.76222700  1
  Sr  Sr2  1  0.88670200  0.45390900  0.13575700  1
  Sr  Sr3  1  0.23671800  0.06314100  0.23777300  1
  Sr  Sr4  1  0.38670200  0.54609100  0.36424300  1
  Sr  Sr5  1  0.73671800  0.93685900  0.26222700  1
  Sr  Sr6  1  0.26328200  0.06314100  0.73777300  1
  Sr  Sr7  1  0.61329800  0.45390900  0.63575700  1
  Tl  Tl8  1  0.39310500  0.54502700  0.86333500  1
  Tl  Tl9  1  0.00000000  0.00000000  0.00000000  1
  Tl  Tl10  1  0.60689500  0.45497300  0.13666500  1
  Tl  Tl11  1  0.50000000  0.00000000  0.00000000  1
  Tl  Tl12  1  0.10689500  0.54502700  0.36333500  1
  Tl  Tl13  1  0.50000000  0.00000000  0.50000000  1
  Tl  Tl14  1  0.89310500  0.45497300  0.63666500  1
  Tl  Tl15  1  0.00000000  0.00000000  0.50000000  1
  O  O16  1  0.63855700  0.16614600  0.96434200  1
  O  O17  1  0.26569700  0.35936400  0.91758700  1
  O  O18  1  0.94585800  0.73319900  0.81475700  1
  O  O19  1  0.86095300  0.15001900  0.96283800  1
  O  O20  1  0.53465900  0.70793900  0.82357200  1
  O  O21  1  0.36144300  0.83385400  0.03565800  1
  O  O22  1  0.05414200  0.26680100  0.18524300  1
  O  O23  1  0.13904700  0.84998100  0.03716200  1
  O  O24  1  0.46534100  0.29206100  0.17642800  1
  O  O25  1  0.73430300  0.64063600  0.08241300  1
  O  O26  1  0.63904700  0.15001900  0.46283800  1
  O  O27  1  0.86144300  0.16614600  0.46434200  1
  O  O28  1  0.23430300  0.35936400  0.41758700  1
  O  O29  1  0.55414200  0.73319900  0.31475700  1
  O  O30  1  0.96534100  0.70793900  0.32357200  1
  O  O31  1  0.03465900  0.29206100  0.67642800  1
  O  O32  1  0.44585800  0.26680100  0.68524300  1
  O  O33  1  0.76569700  0.64063600  0.58241300  1
  O  O34  1  0.13855700  0.83385400  0.53565800  1
  O  O35  1  0.36095300  0.84998100  0.53716200  1
