# generated using pymatgen
data_Sr5(CoO3)4
_symmetry_space_group_name_H-M   'P 1'
_cell_length_a   9.56500400
_cell_length_b   9.56500361
_cell_length_c   20.23545100
_cell_angle_alpha   90.00000000
_cell_angle_beta   90.00000000
_cell_angle_gamma   120.00000135
_symmetry_Int_Tables_number   1
_chemical_formula_structural   Sr5(CoO3)4
_chemical_formula_sum   'Sr30 Co24 O72'
_cell_volume   1603.29636606
_cell_formula_units_Z   6
loop_
 _symmetry_equiv_pos_site_id
 _symmetry_equiv_pos_as_xyz
  1  'x, y, z'
loop_
 _atom_site_type_symbol
 _atom_site_label
 _atom_site_symmetry_multiplicity
 _atom_site_fract_x
 _atom_site_fract_y
 _atom_site_fract_z
 _atom_site_occupancy
  Sr  Sr0  1  0.33215200  0.33217300  0.79853900  1
  Sr  Sr1  1  0.36438000  0.00268000  0.49817100  1
  Sr  Sr2  1  0.02738300  0.69322000  0.20004200  1
  Sr  Sr3  1  0.66782700  0.66784800  0.29853900  1
  Sr  Sr4  1  0.02738300  0.33416300  0.70004200  1
  Sr  Sr5  1  0.30678000  0.97261700  0.70004200  1
  Sr  Sr6  1  0.36438000  0.36170000  0.99817100  1
  Sr  Sr7  1  0.66782700  0.99997800  0.79853900  1
  Sr  Sr8  1  0.63830000  0.63562000  0.49817100  1
  Sr  Sr9  1  0.33014200  0.99434100  0.09830700  1
  Sr  Sr10  1  0.97006000  0.66457100  0.40005000  1
  Sr  Sr11  1  0.33542900  0.02994000  0.90005000  1
  Sr  Sr12  1  0.00002200  0.33217300  0.29853900  1
  Sr  Sr13  1  0.66583700  0.97261700  0.20004200  1
  Sr  Sr14  1  0.99732000  0.63562000  0.99817100  1
  Sr  Sr15  1  0.00565900  0.33580100  0.09830700  1
  Sr  Sr16  1  0.97006000  0.30548900  0.90005000  1
  Sr  Sr17  1  0.33014200  0.33580100  0.59830700  1
  Sr  Sr18  1  0.66419900  0.99434100  0.59830700  1
  Sr  Sr19  1  0.66583700  0.69322000  0.70004200  1
  Sr  Sr20  1  0.33542900  0.30548900  0.40005000  1
  Sr  Sr21  1  0.00565900  0.66985800  0.59830700  1
  Sr  Sr22  1  0.00002200  0.66784800  0.79853900  1
  Sr  Sr23  1  0.69451100  0.66457100  0.90005000  1
  Sr  Sr24  1  0.33215200  0.99997800  0.29853900  1
  Sr  Sr25  1  0.30678000  0.33416300  0.20004200  1
  Sr  Sr26  1  0.99732000  0.36170000  0.49817100  1
  Sr  Sr27  1  0.66419900  0.66985800  0.09830700  1
  Sr  Sr28  1  0.69451100  0.02994000  0.40005000  1
  Sr  Sr29  1  0.63830000  0.00268000  0.99817100  1
  Co  Co30  1  0.33333300  0.66666700  0.02801100  1
  Co  Co31  1  0.33333300  0.66666700  0.52801100  1
  Co  Co32  1  0.33333300  0.66666700  0.89906000  1
  Co  Co33  1  0.00000000  0.00000000  0.12655500  1
  Co  Co34  1  0.66666700  0.33333300  0.44962300  1
  Co  Co35  1  0.66666700  0.33333300  0.32634600  1
  Co  Co36  1  0.66666700  0.33333300  0.07323300  1
  Co  Co37  1  0.66666700  0.33333300  0.94962300  1
  Co  Co38  1  0.33333300  0.66666700  0.64952300  1
  Co  Co39  1  0.33333300  0.66666700  0.77205800  1
  Co  Co40  1  0.66666700  0.33333300  0.69962200  1
  Co  Co41  1  0.66666700  0.33333300  0.82634600  1
  Co  Co42  1  0.33333300  0.66666700  0.14952300  1
  Co  Co43  1  0.33333300  0.66666700  0.27205800  1
  Co  Co44  1  0.00000000  0.00000000  0.99868100  1
  Co  Co45  1  0.00000000  0.00000000  0.24864700  1
  Co  Co46  1  0.00000000  0.00000000  0.62655500  1
  Co  Co47  1  0.66666700  0.33333300  0.57323300  1
  Co  Co48  1  0.00000000  0.00000000  0.49868100  1
  Co  Co49  1  0.66666700  0.33333300  0.19962200  1
  Co  Co50  1  0.00000000  0.00000000  0.86994700  1
  Co  Co51  1  0.33333300  0.66666700  0.39906000  1
  Co  Co52  1  0.00000000  0.00000000  0.74864700  1
  Co  Co53  1  0.00000000  0.00000000  0.36994700  1
  O  O54  1  0.15029000  0.99346400  0.42932200  1
  O  O55  1  0.00653600  0.15682600  0.42932200  1
  O  O56  1  0.32578100  0.50916400  0.46999900  1
  O  O57  1  0.81008600  0.48916700  0.26721800  1
  O  O58  1  0.00057800  0.15353900  0.80640500  1
  O  O59  1  0.84690500  0.99789600  0.06726900  1
  O  O60  1  0.48778000  0.67120000  0.82985400  1
  O  O61  1  0.48381700  0.82622800  0.70882800  1
  O  O62  1  0.15029000  0.15682600  0.92932200  1
  O  O63  1  0.99255800  0.15291700  0.18993800  1
  O  O64  1  0.82923800  0.34697300  0.38923700  1
  O  O65  1  0.49083600  0.67421900  0.96999900  1
  O  O66  1  0.48381700  0.65758900  0.20882800  1
  O  O67  1  0.49083600  0.81661700  0.46999900  1
  O  O68  1  0.18178600  0.51459100  0.59069600  1
  O  O69  1  0.84708300  0.00744200  0.68993800  1
  O  O70  1  0.48540900  0.81821400  0.09069600  1
  O  O71  1  0.15296100  0.15353900  0.30640500  1
  O  O72  1  0.65358200  0.17729800  0.13232200  1
  O  O73  1  0.51083300  0.32091900  0.26721800  1
  O  O74  1  0.16035900  0.00744200  0.18993800  1
  O  O75  1  0.84646100  0.84703900  0.80640500  1
  O  O76  1  0.18342100  0.51222000  0.82985400  1
  O  O77  1  0.00210500  0.15309500  0.56726900  1
  O  O78  1  0.17377200  0.65758900  0.70882800  1
  O  O79  1  0.52371700  0.34641800  0.13232200  1
  O  O80  1  0.67908100  0.18991400  0.26721800  1
  O  O81  1  0.51773500  0.17076200  0.38923700  1
  O  O82  1  0.67908100  0.48916700  0.76721800  1
  O  O83  1  0.81530200  0.49566300  0.51003300  1
  O  O84  1  0.34241100  0.82622800  0.20882800  1
  O  O85  1  0.48778000  0.81657900  0.32985400  1
  O  O86  1  0.33280500  0.81821400  0.59069600  1
  O  O87  1  0.82270200  0.34641800  0.63232200  1
  O  O88  1  0.51773500  0.34697300  0.88923700  1
  O  O89  1  0.84708300  0.83964100  0.18993800  1
  O  O90  1  0.15296100  0.99942200  0.80640500  1
  O  O91  1  0.15099100  0.15309500  0.06726900  1
  O  O92  1  0.17377200  0.51618300  0.20882800  1
  O  O93  1  0.65302700  0.48226500  0.38923700  1
  O  O94  1  0.52371700  0.17729800  0.63232200  1
  O  O95  1  0.65302700  0.17076200  0.88923700  1
  O  O96  1  0.00653600  0.84971000  0.92932200  1
  O  O97  1  0.84690500  0.84900900  0.56726900  1
  O  O98  1  0.68036100  0.49566300  0.01003300  1
  O  O99  1  0.84646100  0.99942200  0.30640500  1
  O  O100  1  0.50433700  0.31963900  0.51003300  1
  O  O101  1  0.99255800  0.83964100  0.68993800  1
  O  O102  1  0.81530200  0.31963900  0.01003300  1
  O  O103  1  0.82270200  0.47628300  0.13232200  1
  O  O104  1  0.65358200  0.47628300  0.63232200  1
  O  O105  1  0.33280500  0.51459100  0.09069600  1
  O  O106  1  0.18338300  0.67421900  0.46999900  1
  O  O107  1  0.68036100  0.18469800  0.51003300  1
  O  O108  1  0.00210500  0.84900900  0.06726900  1
  O  O109  1  0.18338300  0.50916400  0.96999900  1
  O  O110  1  0.51083300  0.18991400  0.76721800  1
  O  O111  1  0.84317400  0.99346400  0.92932200  1
  O  O112  1  0.81008600  0.32091900  0.76721800  1
  O  O113  1  0.34241100  0.51618300  0.70882800  1
  O  O114  1  0.00057800  0.84703900  0.30640500  1
  O  O115  1  0.18178600  0.66719500  0.09069600  1
  O  O116  1  0.15099100  0.99789600  0.56726900  1
  O  O117  1  0.50433700  0.18469800  0.01003300  1
  O  O118  1  0.16035900  0.15291700  0.68993800  1
  O  O119  1  0.18342100  0.67120000  0.32985400  1
  O  O120  1  0.84317400  0.84971000  0.42932200  1
  O  O121  1  0.48540900  0.66719500  0.59069600  1
  O  O122  1  0.82923800  0.48226500  0.88923700  1
  O  O123  1  0.32880000  0.51222000  0.32985400  1
  O  O124  1  0.32880000  0.81657900  0.82985400  1
  O  O125  1  0.32578100  0.81661700  0.96999900  1
