# generated using pymatgen
data_K3MgPCO7
_symmetry_space_group_name_H-M   'P 1'
_cell_length_a   6.92906100
_cell_length_b   5.65247800
_cell_length_c   9.62412692
_cell_angle_alpha   89.68666181
_cell_angle_beta   90.00000000
_cell_angle_gamma   90.00000000
_symmetry_Int_Tables_number   1
_chemical_formula_structural   K3MgPCO7
_chemical_formula_sum   'K6 Mg2 P2 C2 O14'
_cell_volume   376.93642961
_cell_formula_units_Z   2
loop_
 _symmetry_equiv_pos_site_id
 _symmetry_equiv_pos_as_xyz
  1  'x, y, z'
loop_
 _atom_site_type_symbol
 _atom_site_label
 _atom_site_symmetry_multiplicity
 _atom_site_fract_x
 _atom_site_fract_y
 _atom_site_fract_z
 _atom_site_occupancy
  K  K0  1  0.25000000  0.76071500  0.92620100  1
  K  K1  1  0.01295100  0.25939300  0.71957300  1
  K  K2  1  0.48704900  0.25939300  0.71957300  1
  K  K3  1  0.51295100  0.74060700  0.28042700  1
  K  K4  1  0.98704900  0.74060700  0.28042700  1
  K  K5  1  0.75000000  0.23928500  0.07379900  1
  Mg  Mg6  1  0.75000000  0.77013900  0.64171400  1
  Mg  Mg7  1  0.25000000  0.22986100  0.35828600  1
  P  P8  1  0.25000000  0.72665700  0.57413900  1
  P  P9  1  0.75000000  0.27334300  0.42586100  1
  C  C10  1  0.75000000  0.74269400  0.91103000  1
  C  C11  1  0.25000000  0.25730600  0.08897000  1
  O  O12  1  0.25000000  0.26283100  0.95423000  1
  O  O13  1  0.75000000  0.94336500  0.84287100  1
  O  O14  1  0.75000000  0.54892400  0.83776200  1
  O  O15  1  0.06686700  0.75818700  0.66642100  1
  O  O16  1  0.43313300  0.75818700  0.66642100  1
  O  O17  1  0.25000000  0.47195600  0.51169400  1
  O  O18  1  0.75000000  0.08866500  0.54596300  1
  O  O19  1  0.25000000  0.91133500  0.45403700  1
  O  O20  1  0.75000000  0.52804400  0.48830600  1
  O  O21  1  0.56686700  0.24181300  0.33357900  1
  O  O22  1  0.93313300  0.24181300  0.33357900  1
  O  O23  1  0.25000000  0.45107600  0.16223800  1
  O  O24  1  0.25000000  0.05663500  0.15712900  1
  O  O25  1  0.75000000  0.73716900  0.04577000  1
