# generated using pymatgen
data_Na2FePCO7
_symmetry_space_group_name_H-M   'P 1'
_cell_length_a   8.39787049
_cell_length_b   8.46491210
_cell_length_c   8.91046485
_cell_angle_alpha   93.24238515
_cell_angle_beta   91.48884358
_cell_angle_gamma   77.95625570
_symmetry_Int_Tables_number   1
_chemical_formula_structural   Na2FePCO7
_chemical_formula_sum   'Na8 Fe4 P4 C4 O28'
_cell_volume   618.42094185
_cell_formula_units_Z   4
loop_
 _symmetry_equiv_pos_site_id
 _symmetry_equiv_pos_as_xyz
  1  'x, y, z'
loop_
 _atom_site_type_symbol
 _atom_site_label
 _atom_site_symmetry_multiplicity
 _atom_site_fract_x
 _atom_site_fract_y
 _atom_site_fract_z
 _atom_site_occupancy
  Na  Na0  1  0.52707000  0.75718800  0.08358100  1
  Na  Na1  1  0.02707500  0.25718700  0.08358300  1
  Na  Na2  1  0.47292400  0.24281300  0.91641600  1
  Na  Na3  1  0.97292800  0.74281200  0.91642000  1
  Na  Na4  1  0.13028700  0.87895000  0.26409900  1
  Na  Na5  1  0.63028900  0.37894300  0.26409800  1
  Na  Na6  1  0.86971000  0.12105500  0.73590100  1
  Na  Na7  1  0.36971500  0.62105100  0.73590200  1
  Fe  Fe8  1  0.25663700  0.47743200  0.34463500  1
  Fe  Fe9  1  0.24336300  0.02256900  0.65536200  1
  Fe  Fe10  1  0.75663400  0.97742900  0.34461200  1
  Fe  Fe11  1  0.74336600  0.52257100  0.65538700  1
  P  P12  1  0.48188100  0.75957600  0.42682900  1
  P  P13  1  0.98190000  0.25958000  0.42683400  1
  P  P14  1  0.51810000  0.24042000  0.57316600  1
  P  P15  1  0.01811900  0.74042300  0.57317100  1
  C  C16  1  0.73563700  0.02219700  0.06659700  1
  C  C17  1  0.23563600  0.52220200  0.06659500  1
  C  C18  1  0.26436400  0.97779800  0.93340500  1
  C  C19  1  0.76436200  0.47780300  0.93340400  1
  O  O20  1  0.26787500  0.94469500  0.07021300  1
  O  O21  1  0.76787300  0.44469500  0.07021300  1
  O  O22  1  0.73212700  0.05530500  0.92978700  1
  O  O23  1  0.23212500  0.55530500  0.92978700  1
  O  O24  1  0.83758700  0.89793200  0.12117000  1
  O  O25  1  0.33758700  0.39793600  0.12117100  1
  O  O26  1  0.16241300  0.10206400  0.87883000  1
  O  O27  1  0.66241400  0.60206800  0.87883100  1
  O  O28  1  0.63518600  0.10751600  0.16599400  1
  O  O29  1  0.13518500  0.60752200  0.16599400  1
  O  O30  1  0.36481500  0.89247800  0.83400600  1
  O  O31  1  0.86481400  0.39248300  0.83400600  1
  O  O32  1  0.42344100  0.63251100  0.31730500  1
  O  O33  1  0.92343900  0.13251000  0.31730100  1
  O  O34  1  0.57656100  0.36749100  0.68269800  1
  O  O35  1  0.07655900  0.86748900  0.68269600  1
  O  O36  1  0.60038200  0.83158900  0.33435000  1
  O  O37  1  0.10037800  0.33158900  0.33436000  1
  O  O38  1  0.39962300  0.16841100  0.66564100  1
  O  O39  1  0.89961700  0.66841100  0.66565000  1
  O  O40  1  0.43770900  0.31953900  0.43057800  1
  O  O41  1  0.93770600  0.81954000  0.43056700  1
  O  O42  1  0.56229400  0.68046100  0.56943400  1
  O  O43  1  0.06229000  0.18046100  0.56942200  1
  O  O44  1  0.33140400  0.89318100  0.47400900  1
  O  O45  1  0.83139800  0.39319200  0.47402100  1
  O  O46  1  0.66860200  0.10680800  0.52597900  1
  O  O47  1  0.16859600  0.60681800  0.52599100  1
