# generated using pymatgen
data_VOF2
_symmetry_space_group_name_H-M   'P 1'
_cell_length_a   5.18897600
_cell_length_b   5.18808475
_cell_length_c   13.39848594
_cell_angle_alpha   89.83033947
_cell_angle_beta   90.55759394
_cell_angle_gamma   119.65070028
_symmetry_Int_Tables_number   1
_chemical_formula_structural   VOF2
_chemical_formula_sum   'V6 O6 F12'
_cell_volume   313.45226367
_cell_formula_units_Z   6
loop_
 _symmetry_equiv_pos_site_id
 _symmetry_equiv_pos_as_xyz
  1  'x, y, z'
loop_
 _atom_site_type_symbol
 _atom_site_label
 _atom_site_symmetry_multiplicity
 _atom_site_fract_x
 _atom_site_fract_y
 _atom_site_fract_z
 _atom_site_occupancy
  V  V0  1  0.96821500  0.97988800  0.50614600  1
  V  V1  1  0.02390800  0.00734900  0.00716700  1
  V  V2  1  0.35530100  0.71122300  0.17386700  1
  V  V3  1  0.66205400  0.35473100  0.34036000  1
  V  V4  1  0.36817300  0.65855200  0.67299200  1
  V  V5  1  0.67852200  0.30992500  0.84084200  1
  O  O6  1  0.24280100  0.92858600  0.08119000  1
  O  O7  1  0.58016300  0.58510700  0.74917900  1
  O  O8  1  0.74330000  0.65038800  0.41405300  1
  O  O9  1  0.57379400  0.99583100  0.24924800  1
  O  O10  1  0.67583300  0.91199800  0.57860300  1
  O  O11  1  0.74903600  0.09185000  0.91610500  1
  F  F12  1  0.38788700  0.39792500  0.24829800  1
  F  F13  1  0.98210600  0.59027700  0.24470800  1
  F  F14  1  0.08434400  0.73410700  0.58301800  1
  F  F15  1  0.33917700  0.27999600  0.91638400  1
  F  F16  1  0.32559400  0.06413500  0.41791300  1
  F  F17  1  0.99017700  0.39749700  0.74340400  1
  F  F18  1  0.07226900  0.34551700  0.08379300  1
  F  F19  1  0.39845700  0.99942100  0.74896100  1
  F  F20  1  0.26839100  0.32787400  0.58042100  1
  F  F21  1  0.93942200  0.68464900  0.91036800  1
  F  F22  1  0.65693600  0.73719100  0.08014900  1
  F  F23  1  0.93413900  0.25598100  0.41283100  1
