# generated using pymatgen
data_K6Na2V2S7O30
_symmetry_space_group_name_H-M   'P 1'
_cell_length_a   9.70917100
_cell_length_b   9.70917100
_cell_length_c   30.08617200
_cell_angle_alpha   90.00000000
_cell_angle_beta   90.00000000
_cell_angle_gamma   90.00000000
_symmetry_Int_Tables_number   1
_chemical_formula_structural   K6Na2V2S7O30
_chemical_formula_sum   'K24 Na8 V8 S28 O120'
_cell_volume   2836.16330744
_cell_formula_units_Z   4
loop_
 _symmetry_equiv_pos_site_id
 _symmetry_equiv_pos_as_xyz
  1  'x, y, z'
loop_
 _atom_site_type_symbol
 _atom_site_label
 _atom_site_symmetry_multiplicity
 _atom_site_fract_x
 _atom_site_fract_y
 _atom_site_fract_z
 _atom_site_occupancy
  K  K0  1  0.06383900  0.94085900  0.81227500  1
  K  K1  1  0.99126800  0.67632800  0.40421800  1
  K  K2  1  0.91743300  0.39627000  0.51864900  1
  K  K3  1  0.60373000  0.08256700  0.98135100  1
  K  K4  1  0.93616100  0.05914100  0.31227500  1
  K  K5  1  0.00873200  0.32367200  0.90421800  1
  K  K6  1  0.89627000  0.58256700  0.76864900  1
  K  K7  1  0.56383900  0.55914100  0.43772500  1
  K  K8  1  0.55914100  0.56383900  0.56227500  1
  K  K9  1  0.44085900  0.43616100  0.06227500  1
  K  K10  1  0.08256700  0.60373000  0.01864900  1
  K  K11  1  0.17632800  0.50873200  0.65421800  1
  K  K12  1  0.41743300  0.10373000  0.73135100  1
  K  K13  1  0.58256700  0.89627000  0.23135100  1
  K  K14  1  0.49126800  0.82367200  0.84578200  1
  K  K15  1  0.43616100  0.44085900  0.93772500  1
  K  K16  1  0.94085900  0.06383900  0.18772500  1
  K  K17  1  0.50873200  0.17632800  0.34578200  1
  K  K18  1  0.67632800  0.99126800  0.59578200  1
  K  K19  1  0.39627000  0.91743300  0.48135100  1
  K  K20  1  0.10373000  0.41743300  0.26864900  1
  K  K21  1  0.05914100  0.93616100  0.68772500  1
  K  K22  1  0.82367200  0.49126800  0.15421800  1
  K  K23  1  0.32367200  0.00873200  0.09578200  1
  Na  Na24  1  0.34032100  0.22724600  0.57236500  1
  Na  Na25  1  0.72724600  0.15967900  0.82236500  1
  Na  Na26  1  0.22724600  0.34032100  0.42763500  1
  Na  Na27  1  0.77275400  0.65967900  0.92763500  1
  Na  Na28  1  0.65967900  0.77275400  0.07236500  1
  Na  Na29  1  0.84032100  0.27275400  0.67763500  1
  Na  Na30  1  0.15967900  0.72724600  0.17763500  1
  Na  Na31  1  0.27275400  0.84032100  0.32236500  1
  V  V32  1  0.32754500  0.42931200  0.81461700  1
  V  V33  1  0.67245500  0.57068800  0.31461700  1
  V  V34  1  0.92931200  0.17245500  0.06461700  1
  V  V35  1  0.17245500  0.92931200  0.93538300  1
  V  V36  1  0.57068800  0.67245500  0.68538300  1
  V  V37  1  0.42931200  0.32754500  0.18538300  1
  V  V38  1  0.82754500  0.07068800  0.43538300  1
  V  V39  1  0.07068800  0.82754500  0.56461700  1
  S  S40  1  0.71299400  0.28700600  0.25000000  1
  S  S41  1  0.21299400  0.21299400  0.00000000  1
  S  S42  1  0.14739900  0.38693200  0.13152400  1
  S  S43  1  0.76645700  0.44075000  0.02656400  1
  S  S44  1  0.99013900  0.85290700  0.09557700  1
  S  S45  1  0.35290700  0.50986100  0.34557700  1
  S  S46  1  0.78700600  0.78700600  0.50000000  1
  S  S47  1  0.35260100  0.88693200  0.61847600  1
  S  S48  1  0.05925000  0.26645700  0.77656400  1
  S  S49  1  0.85260100  0.61306800  0.63152400  1
  S  S50  1  0.23354300  0.55925000  0.52656400  1
  S  S51  1  0.28700600  0.71299400  0.75000000  1
  S  S52  1  0.85290700  0.99013900  0.90442300  1
  S  S53  1  0.88693200  0.35260100  0.38152400  1
  S  S54  1  0.64709300  0.49013900  0.84557700  1
  S  S55  1  0.11306800  0.64739900  0.88152400  1
  S  S56  1  0.55925000  0.23354300  0.47343600  1
  S  S57  1  0.73354300  0.94075000  0.72343600  1
  S  S58  1  0.14709300  0.00986100  0.40442300  1
  S  S59  1  0.38693200  0.14739900  0.86847600  1
  S  S60  1  0.61306800  0.85260100  0.36847600  1
  S  S61  1  0.50986100  0.35290700  0.65442300  1
  S  S62  1  0.49013900  0.64709300  0.15442300  1
  S  S63  1  0.94075000  0.73354300  0.27656400  1
  S  S64  1  0.26645700  0.05925000  0.22343600  1
  S  S65  1  0.00986100  0.14709300  0.59557700  1
  S  S66  1  0.64739900  0.11306800  0.11847600  1
  S  S67  1  0.44075000  0.76645700  0.97343600  1
  O  O68  1  0.88128200  0.82203300  0.53858000  1
  O  O69  1  0.21591600  0.53561600  0.87460700  1
  O  O70  1  0.29971700  0.27661100  0.85578900  1
  O  O71  1  0.82203300  0.88128200  0.46142000  1
  O  O72  1  0.18871100  0.10689900  0.43899800  1
  O  O73  1  0.11871800  0.17796700  0.03858000  1
  O  O74  1  0.18211800  0.46066000  0.09062600  1
  O  O75  1  0.97815900  0.21764800  0.81514800  1
  O  O76  1  0.39310100  0.68871100  0.18899800  1
  O  O77  1  0.65603800  0.33990200  0.48884000  1
  O  O78  1  0.17796700  0.11871800  0.96142000  1
  O  O79  1  0.02110600  0.61191800  0.91850500  1
  O  O80  1  0.68006100  0.02811800  0.75920500  1
  O  O81  1  0.80782800  0.94932400  0.85947700  1
  O  O82  1  0.03934000  0.68211800  0.84062600  1
  O  O83  1  0.64615100  0.81070400  0.51565100  1
  O  O84  1  0.81391800  0.13312400  0.91453400  1
  O  O85  1  0.18608200  0.86687600  0.41453400  1
  O  O86  1  0.34396200  0.66009800  0.98884000  1
  O  O87  1  0.18929600  0.35384900  0.98434900  1
  O  O88  1  0.72338900  0.70028300  0.64421100  1
  O  O89  1  0.13312400  0.81391800  0.08546600  1
  O  O90  1  0.71591600  0.96438400  0.37539300  1
  O  O91  1  0.66009800  0.34396200  0.01116000  1
  O  O92  1  0.38808200  0.97889400  0.58149500  1
  O  O93  1  0.11191800  0.47889400  0.16850500  1
  O  O94  1  0.52110600  0.88808200  0.33149500  1
  O  O95  1  0.02811800  0.68006100  0.24079500  1
  O  O96  1  0.33990200  0.65603800  0.51116000  1
  O  O97  1  0.31993900  0.97188200  0.25920500  1
  O  O98  1  0.09024000  0.85116500  0.97380400  1
  O  O99  1  0.21764800  0.97815900  0.18485200  1
  O  O100  1  0.89310100  0.81128900  0.06100200  1
  O  O101  1  0.63312400  0.68608200  0.16453400  1
  O  O102  1  0.94932400  0.80782800  0.14052300  1
  O  O103  1  0.28408400  0.03561600  0.87539300  1
  O  O104  1  0.67796700  0.38128200  0.28858000  1
  O  O105  1  0.81788200  0.53934000  0.59062600  1
  O  O106  1  0.81070400  0.64615100  0.48434900  1
  O  O107  1  0.53934000  0.81788200  0.40937400  1
  O  O108  1  0.18006100  0.47188200  0.49079500  1
  O  O109  1  0.97188200  0.31993900  0.74079500  1
  O  O110  1  0.36687600  0.31391800  0.66453400  1
  O  O111  1  0.81993900  0.52811800  0.99079500  1
  O  O112  1  0.20028300  0.77661100  0.89421100  1
  O  O113  1  0.48345700  0.49155600  0.84862900  1
  O  O114  1  0.68871100  0.39310100  0.81100200  1
  O  O115  1  0.53561600  0.21591600  0.12539300  1
  O  O116  1  0.78235200  0.02184100  0.68485200  1
  O  O117  1  0.51654300  0.50844400  0.34862900  1
  O  O118  1  0.01654300  0.99155600  0.90137100  1
  O  O119  1  0.50844400  0.51654300  0.65137100  1
  O  O120  1  0.10689900  0.18871100  0.56100200  1
  O  O121  1  0.28235200  0.47815900  0.56514800  1
  O  O122  1  0.77661100  0.20028300  0.10578900  1
  O  O123  1  0.52811800  0.81993900  0.00920500  1
  O  O124  1  0.32203300  0.61871800  0.78858000  1
  O  O125  1  0.61191800  0.02110600  0.08149500  1
  O  O126  1  0.52184100  0.71764800  0.93485200  1
  O  O127  1  0.68929600  0.14615100  0.26565100  1
  O  O128  1  0.59024000  0.64883500  0.27619600  1
  O  O129  1  0.64119600  0.10433500  0.45624700  1
  O  O130  1  0.47815900  0.28235200  0.43485200  1
  O  O131  1  0.00844400  0.98345700  0.59862900  1
  O  O132  1  0.61871800  0.32203300  0.21142000  1
  O  O133  1  0.31391800  0.36687600  0.33546600  1
  O  O134  1  0.30782800  0.55067600  0.39052300  1
  O  O135  1  0.31128900  0.60689900  0.31100200  1
  O  O136  1  0.96438400  0.71591600  0.62460700  1
  O  O137  1  0.35384900  0.18929600  0.01565100  1
  O  O138  1  0.68211800  0.03934000  0.15937400  1
  O  O139  1  0.03561600  0.28408400  0.12460700  1
  O  O140  1  0.44932400  0.69217200  0.10947700  1
  O  O141  1  0.81128900  0.89310100  0.93899800  1
  O  O142  1  0.99155600  0.01654300  0.09862900  1
  O  O143  1  0.79971700  0.22338900  0.39421100  1
  O  O144  1  0.22338900  0.79971700  0.60578900  1
  O  O145  1  0.47188200  0.18006100  0.50920500  1
  O  O146  1  0.16009800  0.15603800  0.23884000  1
  O  O147  1  0.85384900  0.31070400  0.23434900  1
  O  O148  1  0.40976000  0.35116500  0.77619600  1
  O  O149  1  0.96066000  0.31788200  0.34062600  1
  O  O150  1  0.10433500  0.64119600  0.54375300  1
  O  O151  1  0.19217200  0.05067600  0.35947700  1
  O  O152  1  0.68608200  0.63312400  0.83546600  1
  O  O153  1  0.31070400  0.85384900  0.76565100  1
  O  O154  1  0.27661100  0.29971700  0.14421100  1
  O  O155  1  0.05067600  0.19217200  0.64052300  1
  O  O156  1  0.35116500  0.40976000  0.22380400  1
  O  O157  1  0.46066000  0.18211800  0.90937400  1
  O  O158  1  0.55067600  0.30782800  0.60947700  1
  O  O159  1  0.71764800  0.52184100  0.06514800  1
  O  O160  1  0.78408400  0.46438400  0.37460700  1
  O  O161  1  0.84396200  0.83990200  0.26116000  1
  O  O162  1  0.89566500  0.35880400  0.04375300  1
  O  O163  1  0.85880400  0.60433500  0.29375300  1
  O  O164  1  0.14615100  0.68929600  0.73434900  1
  O  O165  1  0.46438400  0.78408400  0.62539300  1
  O  O166  1  0.14883500  0.90976000  0.52619600  1
  O  O167  1  0.98345700  0.00844400  0.40137100  1
  O  O168  1  0.47889400  0.11191800  0.83149500  1
  O  O169  1  0.69217200  0.44932400  0.89052300  1
  O  O170  1  0.64883500  0.59024000  0.72380400  1
  O  O171  1  0.83990200  0.84396200  0.73884000  1
  O  O172  1  0.02184100  0.78235200  0.31514800  1
  O  O173  1  0.38128200  0.67796700  0.71142000  1
  O  O174  1  0.88808200  0.52110600  0.66850500  1
  O  O175  1  0.49155600  0.48345700  0.15137100  1
  O  O176  1  0.60689900  0.31128900  0.68899800  1
  O  O177  1  0.14119600  0.39566500  0.79375300  1
  O  O178  1  0.15603800  0.16009800  0.76116000  1
  O  O179  1  0.35880400  0.89566500  0.95624700  1
  O  O180  1  0.39566500  0.14119600  0.20624700  1
  O  O181  1  0.70028300  0.72338900  0.35578900  1
  O  O182  1  0.90976000  0.14883500  0.47380400  1
  O  O183  1  0.86687600  0.18608200  0.58546600  1
  O  O184  1  0.85116500  0.09024000  0.02619600  1
  O  O185  1  0.60433500  0.85880400  0.70624700  1
  O  O186  1  0.31788200  0.96066000  0.65937400  1
  O  O187  1  0.97889400  0.38808200  0.41850500  1
