# generated using pymatgen
data_NaCu(PO3)4
_symmetry_space_group_name_H-M   'P 1'
_cell_length_a   8.08155692
_cell_length_b   8.08155692
_cell_length_c   8.01392429
_cell_angle_alpha   86.89771377
_cell_angle_beta   86.89771377
_cell_angle_gamma   108.33662648
_symmetry_Int_Tables_number   1
_chemical_formula_structural   NaCu(PO3)4
_chemical_formula_sum   'Na2 Cu2 P8 O24'
_cell_volume   494.69838015
_cell_formula_units_Z   2
loop_
 _symmetry_equiv_pos_site_id
 _symmetry_equiv_pos_as_xyz
  1  'x, y, z'
loop_
 _atom_site_type_symbol
 _atom_site_label
 _atom_site_symmetry_multiplicity
 _atom_site_fract_x
 _atom_site_fract_y
 _atom_site_fract_z
 _atom_site_occupancy
  Na  Na0  1  0.47794600  0.18982100  0.19618300  1
  Na  Na1  1  0.18982100  0.47794600  0.69618300  1
  Cu  Cu2  1  0.85658700  0.13148100  0.75639000  1
  Cu  Cu3  1  0.13148100  0.85658700  0.25639000  1
  P  P4  1  0.93989800  0.78821200  0.67790500  1
  P  P5  1  0.75308800  0.44639100  0.87495800  1
  P  P6  1  0.55470400  0.24387300  0.62114900  1
  P  P7  1  0.78821200  0.93989800  0.17790500  1
  P  P8  1  0.21317200  0.06078300  0.82504100  1
  P  P9  1  0.44639100  0.75308800  0.37495800  1
  P  P10  1  0.24387300  0.55470400  0.12114900  1
  P  P11  1  0.06078300  0.21317200  0.32504100  1
  O  O12  1  0.87352500  0.12579700  0.25566900  1
  O  O13  1  0.89352800  0.36452900  0.81287200  1
  O  O14  1  0.96283000  0.70172100  0.52394900  1
  O  O15  1  0.84021400  0.65357500  0.83433600  1
  O  O16  1  0.92786600  0.84946600  0.15335400  1
  O  O17  1  0.63488700  0.10425100  0.68436500  1
  O  O18  1  0.84946600  0.92786600  0.65335400  1
  O  O19  1  0.68289700  0.40806300  0.05055400  1
  O  O20  1  0.60210100  0.40089400  0.74477100  1
  O  O21  1  0.58024600  0.30523500  0.44253500  1
  O  O22  1  0.65357500  0.84021400  0.33433600  1
  O  O23  1  0.70172100  0.96283000  0.02394900  1
  O  O24  1  0.30078200  0.04918800  0.98095400  1
  O  O25  1  0.34598500  0.16154600  0.66888700  1
  O  O26  1  0.40806300  0.68289700  0.55055400  1
  O  O27  1  0.40089400  0.60210100  0.24477100  1
  O  O28  1  0.30523500  0.58024600  0.94253500  1
  O  O29  1  0.15566200  0.07477300  0.34005200  1
  O  O30  1  0.36452900  0.89352800  0.31287200  1
  O  O31  1  0.07477300  0.15566300  0.84005200  1
  O  O32  1  0.16154600  0.34598500  0.16888700  1
  O  O33  1  0.04918800  0.30078200  0.48095400  1
  O  O34  1  0.10425100  0.63488700  0.18436500  1
  O  O35  1  0.12579700  0.87352500  0.75566900  1
