# generated using pymatgen
data_MgUO4
_symmetry_space_group_name_H-M   'P 1'
_cell_length_a   5.85896994
_cell_length_b   5.85896994
_cell_length_c   5.85896995
_cell_angle_alpha   107.04653852
_cell_angle_beta   110.20569633
_cell_angle_gamma   111.18989476
_symmetry_Int_Tables_number   1
_chemical_formula_structural   MgUO4
_chemical_formula_sum   'Mg2 U2 O8'
_cell_volume   154.60650762
_cell_formula_units_Z   2
loop_
 _symmetry_equiv_pos_site_id
 _symmetry_equiv_pos_as_xyz
  1  'x, y, z'
loop_
 _atom_site_type_symbol
 _atom_site_label
 _atom_site_symmetry_multiplicity
 _atom_site_fract_x
 _atom_site_fract_y
 _atom_site_fract_z
 _atom_site_occupancy
  O  O0  1  0.80871736  0.48933970  0.29805706  1
  O  O1  1  0.19128264  0.51066030  0.70194294  1
  O  O2  1  0.80871736  0.01066030  0.81937766  1
  O  O3  1  0.19128264  0.98933970  0.18062234  1
  O  O4  1  0.71664818  0.95224061  0.26440757  1
  O  O5  1  0.68783303  0.45224061  0.73559243  1
  O  O6  1  0.31216697  0.54775939  0.26440757  1
  O  O7  1  0.28335182  0.04775939  0.73559243  1
  Mg  Mg8  1  0.50000000  0.00000000  0.50000000  1
  Mg  Mg9  1  0.50000000  0.50000000  0.00000000  1
  U  U10  1  0.01406947  0.25000000  0.26406947  1
  U  U11  1  0.98593053  0.75000000  0.73593053  1
