# generated using pymatgen
data_LiSi
_symmetry_space_group_name_H-M   'P 1'
_cell_length_a   7.19283505
_cell_length_b   7.19283505
_cell_length_c   7.19283505
_cell_angle_alpha   99.16318711
_cell_angle_beta   99.16318711
_cell_angle_gamma   132.96145310
_symmetry_Int_Tables_number   1
_chemical_formula_structural   LiSi
_chemical_formula_sum   'Li8 Si8'
_cell_volume   249.70904868
_cell_formula_units_Z   8
loop_
 _symmetry_equiv_pos_site_id
 _symmetry_equiv_pos_as_xyz
  1  'x, y, z'
loop_
 _atom_site_type_symbol
 _atom_site_label
 _atom_site_symmetry_multiplicity
 _atom_site_fract_x
 _atom_site_fract_y
 _atom_site_fract_z
 _atom_site_occupancy
  Li  Li0  1  0.48970200  0.20619300  0.55455200  1
  Li  Li1  1  0.45619300  0.40164000  0.21649100  1
  Li  Li2  1  0.18514900  0.23970200  0.78350900  1
  Li  Li3  1  0.65164000  0.93514900  0.44544800  1
  Li  Li4  1  0.76029800  0.54380700  0.94544800  1
  Li  Li5  1  0.79380700  0.34836000  0.28350900  1
  Li  Li6  1  0.06485100  0.51029800  0.71649100  1
  Li  Li7  1  0.59836000  0.81485100  0.05455200  1
  Si  Si8  1  0.91969700  0.73303600  0.59197800  1
  Si  Si9  1  0.98303600  0.89105800  0.31333900  1
  Si  Si10  1  0.57771900  0.66969700  0.68666100  1
  Si  Si11  1  0.14105800  0.32771900  0.40802200  1
  Si  Si12  1  0.33030300  0.01696400  0.90802200  1
  Si  Si13  1  0.26696400  0.85894200  0.18666100  1
  Si  Si14  1  0.67228100  0.08030300  0.81333900  1
  Si  Si15  1  0.10894200  0.42228100  0.09197800  1
