# generated using pymatgen
data_K4Cu3As4(HO8)2
_symmetry_space_group_name_H-M   'P 1'
_cell_length_a   9.55571919
_cell_length_b   10.26459800
_cell_length_c   9.84575288
_cell_angle_alpha   90.00000000
_cell_angle_beta   118.32616905
_cell_angle_gamma   90.00000000
_symmetry_Int_Tables_number   1
_chemical_formula_structural   K4Cu3As4(HO8)2
_chemical_formula_sum   'K8 Cu6 As8 H4 O32'
_cell_volume   850.09132169
_cell_formula_units_Z   2
loop_
 _symmetry_equiv_pos_site_id
 _symmetry_equiv_pos_as_xyz
  1  'x, y, z'
loop_
 _atom_site_type_symbol
 _atom_site_label
 _atom_site_symmetry_multiplicity
 _atom_site_fract_x
 _atom_site_fract_y
 _atom_site_fract_z
 _atom_site_occupancy
  K  K0  1  0.23588000  0.50603700  0.17525400  1
  K  K1  1  0.76412000  0.00603700  0.32474600  1
  K  K2  1  0.76412000  0.49396300  0.82474600  1
  K  K3  1  0.23588000  0.99396300  0.67525400  1
  K  K4  1  0.09277300  0.62348400  0.66255100  1
  K  K5  1  0.90722700  0.12348400  0.83744900  1
  K  K6  1  0.90722700  0.37651600  0.33744900  1
  K  K7  1  0.09277300  0.87651600  0.16255100  1
  Cu  Cu8  1  0.50000000  0.50000000  0.00000000  1
  Cu  Cu9  1  0.50000000  0.00000000  0.50000000  1
  Cu  Cu10  1  0.61529800  0.84564500  0.87915300  1
  Cu  Cu11  1  0.38470200  0.34564500  0.62084700  1
  Cu  Cu12  1  0.38470200  0.15435500  0.12084700  1
  Cu  Cu13  1  0.61529800  0.65435500  0.37915300  1
  As  As14  1  0.18909400  0.33068800  0.81137500  1
  As  As15  1  0.81090600  0.83068800  0.68862500  1
  As  As16  1  0.81090600  0.66931200  0.18862500  1
  As  As17  1  0.18909400  0.16931200  0.31137500  1
  As  As18  1  0.60308000  0.29557200  0.45349600  1
  As  As19  1  0.39692000  0.79557200  0.04650400  1
  As  As20  1  0.39692000  0.70442800  0.54650400  1
  As  As21  1  0.60308000  0.20442800  0.95349600  1
  H  H22  1  0.88464700  0.30680900  0.62477200  1
  H  H23  1  0.11535300  0.80680900  0.87522800  1
  H  H24  1  0.11535300  0.69319100  0.37522800  1
  H  H25  1  0.88464700  0.19319100  0.12477200  1
  O  O26  1  0.25003900  0.17691500  0.88926700  1
  O  O27  1  0.74996100  0.67691500  0.61073300  1
  O  O28  1  0.74996100  0.82308500  0.11073300  1
  O  O29  1  0.25003900  0.32308500  0.38926700  1
  O  O30  1  0.28571400  0.45945700  0.93482000  1
  O  O31  1  0.71428600  0.95945700  0.56518000  1
  O  O32  1  0.71428600  0.54054300  0.06518000  1
  O  O33  1  0.28571400  0.04054300  0.43482000  1
  O  O34  1  0.18690300  0.34554800  0.63430400  1
  O  O35  1  0.81309700  0.84554800  0.86569600  1
  O  O36  1  0.81309700  0.65445200  0.36569600  1
  O  O37  1  0.18690300  0.15445200  0.13430400  1
  O  O38  1  0.99485600  0.36106100  0.76932200  1
  O  O39  1  0.00514400  0.86106100  0.73067800  1
  O  O40  1  0.00514400  0.63893900  0.23067800  1
  O  O41  1  0.99485600  0.13893900  0.26932200  1
  O  O42  1  0.55643600  0.42443700  0.33452000  1
  O  O43  1  0.44356400  0.92443700  0.16548000  1
  O  O44  1  0.44356400  0.57556300  0.66548000  1
  O  O45  1  0.55643600  0.07556300  0.83452000  1
  O  O46  1  0.58647400  0.31017600  0.61998600  1
  O  O47  1  0.41352600  0.81017600  0.88001400  1
  O  O48  1  0.41352600  0.68982400  0.38001400  1
  O  O49  1  0.58647400  0.18982400  0.11998600  1
  O  O50  1  0.50739300  0.14955500  0.35895400  1
  O  O51  1  0.49260700  0.64955500  0.14104600  1
  O  O52  1  0.49260700  0.85044500  0.64104600  1
  O  O53  1  0.50739300  0.35044500  0.85895400  1
  O  O54  1  0.80670200  0.25593400  0.52137900  1
  O  O55  1  0.19329800  0.75593400  0.97862100  1
  O  O56  1  0.19329800  0.74406600  0.47862100  1
  O  O57  1  0.80670200  0.24406600  0.02137900  1
