# generated using pymatgen
data_Ni(PO3)3
_symmetry_space_group_name_H-M   'P 1'
_cell_length_a   6.38122200
_cell_length_b   9.67741200
_cell_length_c   10.65837300
_cell_angle_alpha   90.00000000
_cell_angle_beta   90.00000000
_cell_angle_gamma   90.00000000
_symmetry_Int_Tables_number   1
_chemical_formula_structural   Ni(PO3)3
_chemical_formula_sum   'Ni4 P12 O36'
_cell_volume   658.19412176
_cell_formula_units_Z   4
loop_
 _symmetry_equiv_pos_site_id
 _symmetry_equiv_pos_as_xyz
  1  'x, y, z'
loop_
 _atom_site_type_symbol
 _atom_site_label
 _atom_site_symmetry_multiplicity
 _atom_site_fract_x
 _atom_site_fract_y
 _atom_site_fract_z
 _atom_site_occupancy
  Ni  Ni0  1  0.00000000  0.00000000  0.00000000  1
  Ni  Ni1  1  0.50000000  0.00000000  0.50000000  1
  Ni  Ni2  1  0.00000000  0.50000000  0.50000000  1
  Ni  Ni3  1  0.50000000  0.50000000  0.00000000  1
  P  P4  1  0.75000000  0.91941800  0.75000000  1
  P  P5  1  0.36513400  0.78476400  0.86731800  1
  P  P6  1  0.13486600  0.78476400  0.63268200  1
  P  P7  1  0.86513400  0.71523600  0.13268200  1
  P  P8  1  0.63486600  0.71523600  0.36731800  1
  P  P9  1  0.25000000  0.58058200  0.25000000  1
  P  P10  1  0.75000000  0.41941800  0.75000000  1
  P  P11  1  0.36513400  0.28476400  0.63268200  1
  P  P12  1  0.13486600  0.28476400  0.86731800  1
  P  P13  1  0.63486600  0.21523600  0.13268200  1
  P  P14  1  0.86513400  0.21523600  0.36731800  1
  P  P15  1  0.25000000  0.08058200  0.25000000  1
  O  O16  1  0.14882000  0.98723800  0.15499100  1
  O  O17  1  0.35118000  0.98723800  0.34500900  1
  O  O18  1  0.23696600  0.91757400  0.59631500  1
  O  O19  1  0.26303400  0.91757400  0.90368500  1
  O  O20  1  0.61638800  0.81800100  0.47312300  1
  O  O21  1  0.88361200  0.81800100  0.02687700  1
  O  O22  1  0.59378100  0.81094900  0.81050800  1
  O  O23  1  0.90621900  0.81094900  0.68949200  1
  O  O24  1  0.75000000  0.78934100  0.25000000  1
  O  O25  1  0.25000000  0.71065900  0.75000000  1
  O  O26  1  0.09378100  0.68905100  0.18949200  1
  O  O27  1  0.40621900  0.68905100  0.31050800  1
  O  O28  1  0.11638800  0.68199900  0.52687700  1
  O  O29  1  0.38361200  0.68199900  0.97312300  1
  O  O30  1  0.76303400  0.58242600  0.09631500  1
  O  O31  1  0.73696600  0.58242600  0.40368500  1
  O  O32  1  0.85118000  0.51276200  0.65499100  1
  O  O33  1  0.64882000  0.51276200  0.84500900  1
  O  O34  1  0.35118000  0.48723800  0.15499100  1
  O  O35  1  0.14882000  0.48723800  0.34500900  1
  O  O36  1  0.26303400  0.41757400  0.59631500  1
  O  O37  1  0.23696600  0.41757400  0.90368500  1
  O  O38  1  0.61638800  0.31800100  0.02687700  1
  O  O39  1  0.88361200  0.31800100  0.47312300  1
  O  O40  1  0.59378100  0.31094900  0.68949200  1
  O  O41  1  0.90621900  0.31094900  0.81050800  1
  O  O42  1  0.75000000  0.28934100  0.25000000  1
  O  O43  1  0.25000000  0.21065900  0.75000000  1
  O  O44  1  0.40621900  0.18905100  0.18949200  1
  O  O45  1  0.09378100  0.18905100  0.31050800  1
  O  O46  1  0.38361200  0.18199900  0.52687700  1
  O  O47  1  0.11638800  0.18199900  0.97312300  1
  O  O48  1  0.73696600  0.08242600  0.09631500  1
  O  O49  1  0.76303400  0.08242600  0.40368500  1
  O  O50  1  0.64882000  0.01276200  0.65499100  1
  O  O51  1  0.85118000  0.01276200  0.84500900  1
