# generated using pymatgen
data_K2Li2TiO4
_symmetry_space_group_name_H-M   'P 1'
_cell_length_a   8.52779400
_cell_length_b   5.78977200
_cell_length_c   11.37850908
_cell_angle_alpha   70.82012784
_cell_angle_beta   90.00000000
_cell_angle_gamma   90.00000000
_symmetry_Int_Tables_number   1
_chemical_formula_structural   K2Li2TiO4
_chemical_formula_sum   'K8 Li8 Ti4 O16'
_cell_volume   530.61770144
_cell_formula_units_Z   4
loop_
 _symmetry_equiv_pos_site_id
 _symmetry_equiv_pos_as_xyz
  1  'x, y, z'
loop_
 _atom_site_type_symbol
 _atom_site_label
 _atom_site_symmetry_multiplicity
 _atom_site_fract_x
 _atom_site_fract_y
 _atom_site_fract_z
 _atom_site_occupancy
  K  K0  1  0.50437300  0.68351900  0.65778800  1
  K  K1  1  0.21719600  0.27829400  0.10475300  1
  K  K2  1  0.00437300  0.31648100  0.84221200  1
  K  K3  1  0.28280400  0.27829400  0.60475300  1
  K  K4  1  0.71719600  0.72170600  0.39524700  1
  K  K5  1  0.99562700  0.68351900  0.15778800  1
  K  K6  1  0.78280400  0.72170600  0.89524700  1
  K  K7  1  0.49562700  0.31648100  0.34221200  1
  Li  Li8  1  0.48130400  0.37618500  0.92584300  1
  Li  Li9  1  0.98130400  0.62381500  0.57415700  1
  Li  Li10  1  0.95060800  0.10731500  0.29628300  1
  Li  Li11  1  0.45060800  0.89268500  0.20371700  1
  Li  Li12  1  0.54939200  0.10731500  0.79628300  1
  Li  Li13  1  0.04939200  0.89268500  0.70371700  1
  Li  Li14  1  0.01869600  0.37618500  0.42584300  1
  Li  Li15  1  0.51869600  0.62381500  0.07415700  1
  Ti  Ti16  1  0.20613600  0.88091000  0.42739400  1
  Ti  Ti17  1  0.70613600  0.11909000  0.07260600  1
  Ti  Ti18  1  0.29386400  0.88091000  0.92739400  1
  Ti  Ti19  1  0.79386400  0.11909000  0.57260600  1
  O  O20  1  0.83244100  0.79091900  0.64557400  1
  O  O21  1  0.18994100  0.77975000  0.59733000  1
  O  O22  1  0.53144400  0.26491300  0.11573800  1
  O  O23  1  0.90303500  0.19488900  0.11609400  1
  O  O24  1  0.68994100  0.22025000  0.90267000  1
  O  O25  1  0.33244100  0.20908100  0.85442600  1
  O  O26  1  0.40303500  0.80511100  0.38390600  1
  O  O27  1  0.03144400  0.73508700  0.38426200  1
  O  O28  1  0.96855600  0.26491300  0.61573800  1
  O  O29  1  0.59696500  0.19488900  0.61609400  1
  O  O30  1  0.66755900  0.79091900  0.14557400  1
  O  O31  1  0.31005900  0.77975000  0.09733000  1
  O  O32  1  0.09696500  0.80511100  0.88390600  1
  O  O33  1  0.46855600  0.73508700  0.88426200  1
  O  O34  1  0.81005900  0.22025000  0.40267000  1
  O  O35  1  0.16755900  0.20908100  0.35442600  1
