# generated using pymatgen
data_Na2Co2O3
_symmetry_space_group_name_H-M   'P 1'
_cell_length_a   5.87296200
_cell_length_b   6.07173882
_cell_length_c   5.87869005
_cell_angle_alpha   118.64351869
_cell_angle_beta   89.99980514
_cell_angle_gamma   90.00007459
_symmetry_Int_Tables_number   1
_chemical_formula_structural   Na2Co2O3
_chemical_formula_sum   'Na4 Co4 O6'
_cell_volume   183.97419846
_cell_formula_units_Z   2
loop_
 _symmetry_equiv_pos_site_id
 _symmetry_equiv_pos_as_xyz
  1  'x, y, z'
loop_
 _atom_site_type_symbol
 _atom_site_label
 _atom_site_symmetry_multiplicity
 _atom_site_fract_x
 _atom_site_fract_y
 _atom_site_fract_z
 _atom_site_occupancy
  Na  Na0  1  0.65292900  0.90303800  0.14288100  1
  Na  Na1  1  0.84707200  0.40304000  0.14289500  1
  Na  Na2  1  0.15294200  0.59696900  0.85710200  1
  Na  Na3  1  0.34707600  0.09694800  0.85711200  1
  Co  Co4  1  0.87538600  0.91957300  0.66092900  1
  Co  Co5  1  0.62461100  0.41957400  0.66093000  1
  Co  Co6  1  0.37538500  0.58043800  0.33908000  1
  Co  Co7  1  0.12461200  0.08043900  0.33907900  1
  O  O8  1  0.50000800  0.50001500  0.00000800  1
  O  O9  1  0.99998900  0.00001200  0.00000900  1
  O  O10  1  0.08759200  0.75204000  0.35838700  1
  O  O11  1  0.41240400  0.25203800  0.35838600  1
  O  O12  1  0.58760000  0.74794100  0.64160100  1
  O  O13  1  0.91239500  0.24793400  0.64160100  1
