# generated using pymatgen
data_Bi2TeO2
_symmetry_space_group_name_H-M   'P 1'
_cell_length_a   4.03157006
_cell_length_b   7.04584888
_cell_length_c   4.01631091
_cell_angle_alpha   73.16677934
_cell_angle_beta   90.01466611
_cell_angle_gamma   106.20259365
_symmetry_Int_Tables_number   1
_chemical_formula_structural   Bi2TeO2
_chemical_formula_sum   'Bi2 Te1 O2'
_cell_volume   104.45756543
_cell_formula_units_Z   1
loop_
 _symmetry_equiv_pos_site_id
 _symmetry_equiv_pos_as_xyz
  1  'x, y, z'
loop_
 _atom_site_type_symbol
 _atom_site_label
 _atom_site_symmetry_multiplicity
 _atom_site_fract_x
 _atom_site_fract_y
 _atom_site_fract_z
 _atom_site_occupancy
  Bi  Bi0  1  0.65590624  0.30937629  0.34885897  1
  Bi  Bi1  1  0.34052606  0.69522826  0.65586266  1
  Te  Te2  1  0.00828754  0.00112229  0.99532513  1
  O  O3  1  0.25137405  0.50230296  0.24865613  1
  O  O4  1  0.75129610  0.50102020  0.75008411  1
