# generated using pymatgen
data_Na5(NiO2)9
_symmetry_space_group_name_H-M   'P 1'
_cell_length_a   5.73790300
_cell_length_b   7.47882671
_cell_length_c   8.59253585
_cell_angle_alpha   100.52895578
_cell_angle_beta   105.50939498
_cell_angle_gamma   95.43694766
_symmetry_Int_Tables_number   1
_chemical_formula_structural   Na5(NiO2)9
_chemical_formula_sum   'Na5 Ni9 O18'
_cell_volume   345.28355197
_cell_formula_units_Z   1
loop_
 _symmetry_equiv_pos_site_id
 _symmetry_equiv_pos_as_xyz
  1  'x, y, z'
loop_
 _atom_site_type_symbol
 _atom_site_label
 _atom_site_symmetry_multiplicity
 _atom_site_fract_x
 _atom_site_fract_y
 _atom_site_fract_z
 _atom_site_occupancy
  Na  Na0  1  0.00437900  0.33986400  0.87415600  1
  Na  Na1  1  0.00000000  0.00000000  0.00000000  1
  Na  Na2  1  0.99562100  0.66013600  0.12584400  1
  Na  Na3  1  0.00348100  0.70485400  0.48279100  1
  Na  Na4  1  0.99651900  0.29514600  0.51720900  1
  Ni  Ni5  1  0.50139300  0.83260100  0.72572700  1
  Ni  Ni6  1  0.50639700  0.49941600  0.83360400  1
  Ni  Ni7  1  0.50229500  0.16758000  0.94085900  1
  Ni  Ni8  1  0.49770500  0.83242000  0.05914100  1
  Ni  Ni9  1  0.49360300  0.50058400  0.16639600  1
  Ni  Ni10  1  0.49860700  0.16739900  0.27427300  1
  Ni  Ni11  1  0.49435100  0.83434100  0.39202500  1
  Ni  Ni12  1  0.50000000  0.50000000  0.50000000  1
  Ni  Ni13  1  0.50564900  0.16565900  0.60797500  1
  O  O14  1  0.69577400  0.39969200  0.66498900  1
  O  O15  1  0.32704100  0.25561700  0.75562400  1
  O  O16  1  0.68404100  0.08513500  0.79543800  1
  O  O17  1  0.68714900  0.74046500  0.92601400  1
  O  O18  1  0.32158200  0.92820400  0.88401800  1
  O  O19  1  0.68981500  0.40297300  0.00444400  1
  O  O20  1  0.31018500  0.59702700  0.99555600  1
  O  O21  1  0.67841800  0.07179600  0.11598200  1
  O  O22  1  0.67295900  0.74438300  0.24437600  1
  O  O23  1  0.31285100  0.25953500  0.07398600  1
  O  O24  1  0.31595900  0.91486500  0.20456200  1
  O  O25  1  0.67807500  0.42356500  0.35207900  1
  O  O26  1  0.30422600  0.60030800  0.33501100  1
  O  O27  1  0.68199000  0.06613500  0.47022800  1
  O  O28  1  0.32775000  0.26146100  0.43548300  1
  O  O29  1  0.67225000  0.73853900  0.56451700  1
  O  O30  1  0.31801000  0.93386500  0.52977200  1
  O  O31  1  0.32192500  0.57643500  0.64792100  1
