# generated using pymatgen
data_ZrH6O3F4
_symmetry_space_group_name_H-M   'P 1'
_cell_length_a   5.99548400
_cell_length_b   6.69733043
_cell_length_c   7.61988731
_cell_angle_alpha   76.94892179
_cell_angle_beta   75.05895129
_cell_angle_gamma   66.84951830
_symmetry_Int_Tables_number   1
_chemical_formula_structural   ZrH6O3F4
_chemical_formula_sum   'Zr2 H12 O6 F8'
_cell_volume   269.13728590
_cell_formula_units_Z   2
loop_
 _symmetry_equiv_pos_site_id
 _symmetry_equiv_pos_as_xyz
  1  'x, y, z'
loop_
 _atom_site_type_symbol
 _atom_site_label
 _atom_site_symmetry_multiplicity
 _atom_site_fract_x
 _atom_site_fract_y
 _atom_site_fract_z
 _atom_site_occupancy
  Zr  Zr0  1  0.12049500  0.14683900  0.78164200  1
  Zr  Zr1  1  0.87950500  0.85316100  0.21835800  1
  H  H2  1  0.80369900  0.21534800  0.52275200  1
  H  H3  1  0.19630100  0.78465200  0.47724800  1
  H  H4  1  0.76959000  0.44926400  0.56555800  1
  H  H5  1  0.23041000  0.55073600  0.43444200  1
  H  H6  1  0.64224700  0.93961100  0.82249500  1
  H  H7  1  0.35775300  0.06038900  0.17750500  1
  H  H8  1  0.61255900  0.83485200  0.66072700  1
  H  H9  1  0.38744100  0.16514800  0.33927300  1
  H  H10  1  0.24307300  0.44369500  0.93479900  1
  H  H11  1  0.75692700  0.55630500  0.06520100  1
  H  H12  1  0.49075900  0.32804400  0.78710800  1
  H  H13  1  0.50924100  0.67195600  0.21289200  1
  O  O14  1  0.78387900  0.29691200  0.62465100  1
  O  O15  1  0.21612100  0.70308800  0.37534900  1
  O  O16  1  0.52456600  0.93130500  0.75729700  1
  O  O17  1  0.47543400  0.06869500  0.24270300  1
  O  O18  1  0.32340500  0.33141000  0.84919800  1
  O  O19  1  0.67659500  0.66859000  0.15080200  1
  F  F20  1  0.86148100  0.40864200  0.89780600  1
  F  F21  1  0.13851900  0.59135800  0.10219400  1
  F  F22  1  0.83101300  0.00315100  0.94033900  1
  F  F23  1  0.16898700  0.99684900  0.05966100  1
  F  F24  1  0.16516600  0.89818400  0.64771600  1
  F  F25  1  0.83483400  0.10181600  0.35228400  1
  F  F26  1  0.24610100  0.29904300  0.52454800  1
  F  F27  1  0.75389900  0.70095700  0.47545200  1
