# generated using pymatgen
data_Na3FePCO7
_symmetry_space_group_name_H-M   'P 1'
_cell_length_a   5.30101677
_cell_length_b   11.23635873
_cell_length_c   11.23844440
_cell_angle_alpha   106.45045062
_cell_angle_beta   90.02145076
_cell_angle_gamma   89.98322198
_symmetry_Int_Tables_number   1
_chemical_formula_structural   Na3FePCO7
_chemical_formula_sum   'Na12 Fe4 P4 C4 O28'
_cell_volume   642.00583539
_cell_formula_units_Z   4
loop_
 _symmetry_equiv_pos_site_id
 _symmetry_equiv_pos_as_xyz
  1  'x, y, z'
loop_
 _atom_site_type_symbol
 _atom_site_label
 _atom_site_symmetry_multiplicity
 _atom_site_fract_x
 _atom_site_fract_y
 _atom_site_fract_z
 _atom_site_occupancy
  Na  Na0  1  0.00293600  0.24075600  0.24346100  1
  Na  Na1  1  0.00210200  0.74095400  0.74337800  1
  Na  Na2  1  0.99761400  0.99340100  0.99093400  1
  Na  Na3  1  0.99751500  0.49330400  0.49076000  1
  Na  Na4  1  0.44264400  0.02962100  0.19474700  1
  Na  Na5  1  0.44221100  0.52965100  0.69478000  1
  Na  Na6  1  0.55747300  0.94496100  0.77975300  1
  Na  Na7  1  0.55767500  0.44468600  0.27939100  1
  Na  Na8  1  0.49241800  0.99723900  0.49234300  1
  Na  Na9  1  0.49253100  0.49728400  0.99238200  1
  Na  Na10  1  0.50758900  0.24235700  0.74724100  1
  Na  Na11  1  0.50713300  0.74252100  0.24726500  1
  Fe  Fe12  1  0.02930000  0.71985600  0.01814500  1
  Fe  Fe13  1  0.97089900  0.26824700  0.97004800  1
  Fe  Fe14  1  0.03002000  0.21992400  0.51817000  1
  Fe  Fe15  1  0.96972300  0.76812800  0.47002100  1
  P  P16  1  0.98536100  0.94674300  0.29052400  1
  P  P17  1  0.98508500  0.44686800  0.79039600  1
  P  P18  1  0.01467400  0.04053200  0.69687600  1
  P  P19  1  0.01480300  0.54046800  0.19687500  1
  C  C20  1  0.49963400  0.29207700  0.44596300  1
  C  C21  1  0.49895600  0.79216600  0.94595100  1
  C  C22  1  0.50032700  0.69601800  0.54212000  1
  C  C23  1  0.50119600  0.19606600  0.04222500  1
  O  O24  1  0.32371500  0.34212900  0.39454500  1
  O  O25  1  0.32286000  0.84216500  0.89458800  1
  O  O26  1  0.67649000  0.64460500  0.59203300  1
  O  O27  1  0.67736200  0.14465900  0.09215600  1
  O  O28  1  0.73723000  0.31006400  0.42415000  1
  O  O29  1  0.73648400  0.81039000  0.92417400  1
  O  O30  1  0.26282300  0.67423000  0.56030400  1
  O  O31  1  0.26369700  0.17420000  0.06044300  1
  O  O32  1  0.06982800  0.90083000  0.15167300  1
  O  O33  1  0.06979300  0.40091000  0.65163100  1
  O  O34  1  0.92981200  0.90174200  0.65094800  1
  O  O35  1  0.93058500  0.40157300  0.15100700  1
  O  O36  1  0.08279900  0.08326900  0.33877200  1
  O  O37  1  0.08195900  0.58349600  0.83858000  1
  O  O38  1  0.91802000  0.08872600  0.83352800  1
  O  O39  1  0.91748600  0.58868400  0.33337600  1
  O  O40  1  0.43841100  0.22556500  0.51832700  1
  O  O41  1  0.43803200  0.72551300  0.01821200  1
  O  O42  1  0.56130400  0.76838400  0.47556100  1
  O  O43  1  0.56202700  0.26842700  0.97567700  1
  O  O44  1  0.69755800  0.93775200  0.30324400  1
  O  O45  1  0.69735200  0.43771300  0.80309500  1
  O  O46  1  0.30242800  0.05319300  0.68764700  1
  O  O47  1  0.30252100  0.55332400  0.18781600  1
  O  O48  1  0.12347900  0.86680500  0.36490300  1
  O  O49  1  0.12352300  0.36712400  0.86493200  1
  O  O50  1  0.87626500  0.11510700  0.61719300  1
  O  O51  1  0.87633400  0.61478800  0.11693300  1
