# generated using pymatgen
data_K3H3Pd
_symmetry_space_group_name_H-M   'P 1'
_cell_length_a   10.90940800
_cell_length_b   10.90940800
_cell_length_c   10.37252500
_cell_angle_alpha   90.00000000
_cell_angle_beta   90.00000000
_cell_angle_gamma   90.00000000
_symmetry_Int_Tables_number   1
_chemical_formula_structural   K3H3Pd
_chemical_formula_sum   'K24 H24 Pd8'
_cell_volume   1234.48796012
_cell_formula_units_Z   8
loop_
 _symmetry_equiv_pos_site_id
 _symmetry_equiv_pos_as_xyz
  1  'x, y, z'
loop_
 _atom_site_type_symbol
 _atom_site_label
 _atom_site_symmetry_multiplicity
 _atom_site_fract_x
 _atom_site_fract_y
 _atom_site_fract_z
 _atom_site_occupancy
  K  K0  1  0.79419900  0.20580100  0.50000000  1
  K  K1  1  0.20580100  0.79419900  0.50000000  1
  K  K2  1  0.29419900  0.29419900  0.00000000  1
  K  K3  1  0.70580100  0.70580100  0.00000000  1
  K  K4  1  0.79939300  0.79939300  0.50000000  1
  K  K5  1  0.20060700  0.20060700  0.50000000  1
  K  K6  1  0.29939300  0.70060700  0.00000000  1
  K  K7  1  0.70060700  0.29939300  0.00000000  1
  K  K8  1  0.50352200  0.24910100  0.29221800  1
  K  K9  1  0.49647800  0.75089900  0.29221800  1
  K  K10  1  0.00352200  0.25089900  0.79221800  1
  K  K11  1  0.99647800  0.74910100  0.79221800  1
  K  K12  1  0.49647800  0.75089900  0.70778200  1
  K  K13  1  0.50352200  0.24910100  0.70778200  1
  K  K14  1  0.99647800  0.74910100  0.20778200  1
  K  K15  1  0.00352200  0.25089900  0.20778200  1
  K  K16  1  0.24910100  0.50352200  0.29221800  1
  K  K17  1  0.75089900  0.49647800  0.29221800  1
  K  K18  1  0.25089900  0.00352200  0.79221800  1
  K  K19  1  0.74910100  0.99647800  0.79221800  1
  K  K20  1  0.75089900  0.49647800  0.70778200  1
  K  K21  1  0.24910100  0.50352200  0.70778200  1
  K  K22  1  0.74910100  0.99647800  0.20778200  1
  K  K23  1  0.25089900  0.00352200  0.20778200  1
  H  H24  1  0.75356600  0.24643400  0.24424900  1
  H  H25  1  0.24643400  0.75356600  0.24424900  1
  H  H26  1  0.25356600  0.25356600  0.74424900  1
  H  H27  1  0.74643400  0.74643400  0.74424900  1
  H  H28  1  0.24643400  0.75356600  0.75575100  1
  H  H29  1  0.75356600  0.24643400  0.75575100  1
  H  H30  1  0.74643400  0.74643400  0.25575100  1
  H  H31  1  0.25356600  0.25356600  0.25575100  1
  H  H32  1  0.60929700  0.39070300  0.50000000  1
  H  H33  1  0.39070300  0.60929700  0.50000000  1
  H  H34  1  0.10929700  0.10929700  0.00000000  1
  H  H35  1  0.89070300  0.89070300  0.00000000  1
  H  H36  1  0.50000000  0.50000000  0.16293600  1
  H  H37  1  0.00000000  0.00000000  0.66293600  1
  H  H38  1  0.50000000  0.50000000  0.83706400  1
  H  H39  1  0.00000000  0.00000000  0.33706400  1
  H  H40  1  0.34626900  0.00045300  0.50000000  1
  H  H41  1  0.65373100  0.99954700  0.50000000  1
  H  H42  1  0.84626900  0.49954700  0.00000000  1
  H  H43  1  0.15373100  0.50045300  0.00000000  1
  H  H44  1  0.00045300  0.34626900  0.50000000  1
  H  H45  1  0.99954700  0.65373100  0.50000000  1
  H  H46  1  0.49954700  0.84626900  0.00000000  1
  H  H47  1  0.50045300  0.15373100  0.00000000  1
  Pd  Pd48  1  0.50000000  0.50000000  0.50000000  1
  Pd  Pd49  1  0.00000000  0.00000000  0.00000000  1
  Pd  Pd50  1  0.50000000  0.50000000  0.00000000  1
  Pd  Pd51  1  0.00000000  0.00000000  0.50000000  1
  Pd  Pd52  1  0.50000000  0.00000000  0.50000000  1
  Pd  Pd53  1  0.00000000  0.50000000  0.00000000  1
  Pd  Pd54  1  0.00000000  0.50000000  0.50000000  1
  Pd  Pd55  1  0.50000000  0.00000000  0.00000000  1
