# generated using pymatgen
data_EuVO3
_symmetry_space_group_name_H-M   'P 1'
_cell_length_a   3.88002501
_cell_length_b   3.92562001
_cell_length_c   3.88187245
_cell_angle_alpha   90.21418158
_cell_angle_beta   90.68545742
_cell_angle_gamma   90.22250848
_symmetry_Int_Tables_number   1
_chemical_formula_structural   EuVO3
_chemical_formula_sum   'Eu1 V1 O3'
_cell_volume   59.12165459
_cell_formula_units_Z   1
loop_
 _symmetry_equiv_pos_site_id
 _symmetry_equiv_pos_as_xyz
  1  'x, y, z'
loop_
 _atom_site_type_symbol
 _atom_site_label
 _atom_site_symmetry_multiplicity
 _atom_site_fract_x
 _atom_site_fract_y
 _atom_site_fract_z
 _atom_site_occupancy
  Eu  Eu0  1  0.99998100  0.99999500  0.00003300  1
  V  V1  1  0.50000100  0.49999800  0.49999800  1
  O  O2  1  0.00000300  0.50000200  0.49998500  1
  O  O3  1  0.50000400  0.00000100  0.49999100  1
  O  O4  1  0.50001100  0.50000500  0.99999400  1
