# generated using pymatgen
data_CeAlO3
_symmetry_space_group_name_H-M   'P 1'
_cell_length_a   5.35205400
_cell_length_b   5.35388700
_cell_length_c   7.64016500
_cell_angle_alpha   90.00000000
_cell_angle_beta   90.00000000
_cell_angle_gamma   90.00000000
_symmetry_Int_Tables_number   1
_chemical_formula_structural   CeAlO3
_chemical_formula_sum   'Ce4 Al4 O12'
_cell_volume   218.92352139
_cell_formula_units_Z   4
loop_
 _symmetry_equiv_pos_site_id
 _symmetry_equiv_pos_as_xyz
  1  'x, y, z'
loop_
 _atom_site_type_symbol
 _atom_site_label
 _atom_site_symmetry_multiplicity
 _atom_site_fract_x
 _atom_site_fract_y
 _atom_site_fract_z
 _atom_site_occupancy
  Ce  Ce0  1  0.01656900  0.99444000  0.75000000  1
  Ce  Ce1  1  0.51656900  0.50556000  0.75000000  1
  Ce  Ce2  1  0.48343100  0.49444000  0.25000000  1
  Ce  Ce3  1  0.98343100  0.00556000  0.25000000  1
  Al  Al4  1  0.50000000  0.00000000  0.00000000  1
  Al  Al5  1  0.50000000  0.00000000  0.50000000  1
  Al  Al6  1  0.00000000  0.50000000  0.00000000  1
  Al  Al7  1  0.00000000  0.50000000  0.50000000  1
  O  O8  1  0.50397300  0.95204400  0.25000000  1
  O  O9  1  0.77452300  0.77378100  0.52452400  1
  O  O10  1  0.77452300  0.77378100  0.97547600  1
  O  O11  1  0.27452300  0.72621900  0.97547600  1
  O  O12  1  0.27452300  0.72621900  0.52452400  1
  O  O13  1  0.00397300  0.54795600  0.25000000  1
  O  O14  1  0.99602700  0.45204400  0.75000000  1
  O  O15  1  0.72547700  0.27378100  0.02452400  1
  O  O16  1  0.72547700  0.27378100  0.47547600  1
  O  O17  1  0.22547700  0.22621900  0.02452400  1
  O  O18  1  0.22547700  0.22621900  0.47547600  1
  O  O19  1  0.49602700  0.04795600  0.75000000  1
