# generated using pymatgen
data_Li8V3P8O29
_symmetry_space_group_name_H-M   'P 1'
_cell_length_a   9.90654314
_cell_length_b   9.90654314
_cell_length_c   13.90040602
_cell_angle_alpha   89.54643929
_cell_angle_beta   89.54643929
_cell_angle_gamma   60.05166290
_symmetry_Int_Tables_number   1
_chemical_formula_structural   Li8V3P8O29
_chemical_formula_sum   'Li16 V6 P16 O58'
_cell_volume   1181.97989213
_cell_formula_units_Z   2
loop_
 _symmetry_equiv_pos_site_id
 _symmetry_equiv_pos_as_xyz
  1  'x, y, z'
loop_
 _atom_site_type_symbol
 _atom_site_label
 _atom_site_symmetry_multiplicity
 _atom_site_fract_x
 _atom_site_fract_y
 _atom_site_fract_z
 _atom_site_occupancy
  Li  Li0  1  0.67245800  0.23652800  0.06529000  1
  Li  Li1  1  0.66286400  0.10305200  0.56712900  1
  Li  Li2  1  0.23652800  0.67245800  0.56529000  1
  Li  Li3  1  0.34044000  0.33068800  0.38234300  1
  Li  Li4  1  0.33068800  0.34044000  0.88234300  1
  Li  Li5  1  0.10305200  0.66286400  0.06712900  1
  Li  Li6  1  0.22907700  0.09312400  0.06160300  1
  Li  Li7  1  0.09312400  0.22907700  0.56160300  1
  Li  Li8  1  0.90800900  0.31852100  0.93442700  1
  Li  Li9  1  0.68234600  0.66761700  0.61569000  1
  Li  Li10  1  0.66761700  0.68234600  0.11569000  1
  Li  Li11  1  0.76793700  0.32378400  0.43551700  1
  Li  Li12  1  0.31852100  0.90800900  0.43442700  1
  Li  Li13  1  0.32378400  0.76793700  0.93551700  1
  Li  Li14  1  0.92739800  0.97737900  0.98127800  1
  Li  Li15  1  0.97737900  0.92739800  0.48127800  1
  V  V16  1  0.99586100  0.56913000  0.25358900  1
  V  V17  1  0.00217600  0.43558400  0.74934900  1
  V  V18  1  0.56913000  0.99586100  0.75358900  1
  V  V19  1  0.43558400  0.00217600  0.24934900  1
  V  V20  1  0.56517600  0.43459900  0.24728000  1
  V  V21  1  0.43459900  0.56517600  0.74728000  1
  P  P22  1  0.68082200  0.22555100  0.84254800  1
  P  P23  1  0.68279100  0.08917900  0.34911400  1
  P  P24  1  0.22555100  0.68082200  0.34254800  1
  P  P25  1  0.32738400  0.33830400  0.12432700  1
  P  P26  1  0.33830400  0.32738400  0.62432700  1
  P  P27  1  0.08917900  0.68279100  0.84911400  1
  P  P28  1  0.91308900  0.78020300  0.66369200  1
  P  P29  1  0.22961100  0.08806800  0.84148700  1
  P  P30  1  0.78020300  0.91308900  0.16369200  1
  P  P31  1  0.08806800  0.22961100  0.34148700  1
  P  P32  1  0.91138600  0.32162000  0.15372200  1
  P  P33  1  0.66608000  0.66310300  0.37483300  1
  P  P34  1  0.66310300  0.66608000  0.87483300  1
  P  P35  1  0.77171000  0.32104900  0.65632700  1
  P  P36  1  0.32162000  0.91138600  0.65372200  1
  P  P37  1  0.32104900  0.77171000  0.15632700  1
  O  O38  1  0.75977000  0.23839400  0.56880700  1
  O  O39  1  0.67252900  0.24876100  0.33781400  1
  O  O40  1  0.78747700  0.01504600  0.08544200  1
  O  O41  1  0.66558500  0.07935200  0.84047800  1
  O  O42  1  0.51884600  0.37135200  0.83447200  1
  O  O43  1  0.47979200  0.33481300  0.15707700  1
  O  O44  1  0.37135200  0.51884600  0.33447200  1
  O  O45  1  0.23839400  0.75977000  0.06880700  1
  O  O46  1  0.24876100  0.67252900  0.83781400  1
  O  O47  1  0.48602500  0.18227900  0.67162000  1
  O  O48  1  0.51917400  0.11062500  0.33305000  1
  O  O49  1  0.33481300  0.47979200  0.65707700  1
  O  O50  1  0.30991800  0.35383400  0.01640700  1
  O  O51  1  0.35383400  0.30991800  0.51640700  1
  O  O52  1  0.18227900  0.48602500  0.17162000  1
  O  O53  1  0.37353700  0.11071800  0.83002400  1
  O  O54  1  0.32679800  0.18999200  0.16096700  1
  O  O55  1  0.07935200  0.66558500  0.34047800  1
  O  O56  1  0.97941100  0.79774200  0.76553400  1
  O  O57  1  0.01504600  0.78747700  0.58544200  1
  O  O58  1  0.01379800  0.75946600  0.94261000  1
  O  O59  1  0.11062500  0.51917400  0.83305000  1
  O  O60  1  0.18999200  0.32679800  0.66096700  1
  O  O61  1  0.92282100  0.74648600  0.15833600  1
  O  O62  1  0.11071800  0.37353700  0.33002400  1
  O  O63  1  0.24793800  0.08037400  0.34129900  1
  O  O64  1  0.79774200  0.97941100  0.26553400  1
  O  O65  1  0.75946600  0.01379800  0.44261000  1
  O  O66  1  0.23789400  0.00313900  0.56527900  1
  O  O67  1  0.74648600  0.92282100  0.65833600  1
  O  O68  1  0.90029200  0.63154300  0.66651800  1
  O  O69  1  0.08037400  0.24793800  0.84129900  1
  O  O70  1  0.81460100  0.65892900  0.32464200  1
  O  O71  1  0.89429700  0.48477000  0.16651400  1
  O  O72  1  0.00313900  0.23789400  0.06527900  1
  O  O73  1  0.99526200  0.23765100  0.43010500  1
  O  O74  1  0.99928900  0.21849200  0.24767400  1
  O  O75  1  0.92163700  0.33081900  0.65596500  1
  O  O76  1  0.65892900  0.81460100  0.82464200  1
  O  O77  1  0.63154300  0.90029200  0.16651800  1
  O  O78  1  0.81291300  0.51803800  0.83832400  1
  O  O79  1  0.65917000  0.67974000  0.98191800  1
  O  O80  1  0.67974000  0.65917000  0.48191800  1
  O  O81  1  0.66826800  0.51428600  0.33849100  1
  O  O82  1  0.48477000  0.89429700  0.66651400  1
  O  O83  1  0.51803800  0.81291300  0.33832400  1
  O  O84  1  0.75060700  0.33525000  0.15301200  1
  O  O85  1  0.78452400  0.21753800  0.75027300  1
  O  O86  1  0.77309800  0.22046100  0.93140000  1
  O  O87  1  0.63148000  0.48701100  0.66981500  1
  O  O88  1  0.51428600  0.66826800  0.83849100  1
  O  O89  1  0.48701100  0.63148000  0.16981500  1
  O  O90  1  0.33081900  0.92163700  0.15596500  1
  O  O91  1  0.23765100  0.99526200  0.93010500  1
  O  O92  1  0.21849200  0.99928900  0.74767400  1
  O  O93  1  0.33525000  0.75060700  0.65301200  1
  O  O94  1  0.22046100  0.77309800  0.43140000  1
  O  O95  1  0.21753800  0.78452400  0.25027300  1
