# generated using pymatgen
data_DyWO4
_symmetry_space_group_name_H-M   'P 1'
_cell_length_a   5.55841700
_cell_length_b   5.20378700
_cell_length_c   5.32917054
_cell_angle_alpha   82.93364346
_cell_angle_beta   90.00000000
_cell_angle_gamma   90.00000000
_symmetry_Int_Tables_number   1
_chemical_formula_structural   DyWO4
_chemical_formula_sum   'Dy2 W2 O8'
_cell_volume   152.97445422
_cell_formula_units_Z   2
loop_
 _symmetry_equiv_pos_site_id
 _symmetry_equiv_pos_as_xyz
  1  'x, y, z'
loop_
 _atom_site_type_symbol
 _atom_site_label
 _atom_site_symmetry_multiplicity
 _atom_site_fract_x
 _atom_site_fract_y
 _atom_site_fract_z
 _atom_site_occupancy
  Dy  Dy0  1  0.27003300  0.50000000  0.75000000  1
  Dy  Dy1  1  0.72996700  0.50000000  0.25000000  1
  W  W2  1  0.81170200  0.00000000  0.75000000  1
  W  W3  1  0.18829800  0.00000000  0.25000000  1
  O  O4  1  0.06840300  0.23144500  0.49838800  1
  O  O5  1  0.93159700  0.23144500  0.99838800  1
  O  O6  1  0.58984800  0.25902300  0.60839000  1
  O  O7  1  0.41015200  0.25902300  0.10839000  1
  O  O8  1  0.58984800  0.74097700  0.89161000  1
  O  O9  1  0.41015200  0.74097700  0.39161000  1
  O  O10  1  0.06840300  0.76855500  0.00161200  1
  O  O11  1  0.93159700  0.76855500  0.50161200  1
