# generated using pymatgen
data_Rb3Mn16O32
_symmetry_space_group_name_H-M   'P 1'
_cell_length_a   10.26783262
_cell_length_b   8.38786970
_cell_length_c   8.39065853
_cell_angle_alpha   73.69419933
_cell_angle_beta   67.48968322
_cell_angle_gamma   101.78856194
_symmetry_Int_Tables_number   1
_chemical_formula_structural   Rb3Mn16O32
_chemical_formula_sum   'Rb3 Mn16 O32'
_cell_volume   599.81406491
_cell_formula_units_Z   1
loop_
 _symmetry_equiv_pos_site_id
 _symmetry_equiv_pos_as_xyz
  1  'x, y, z'
loop_
 _atom_site_type_symbol
 _atom_site_label
 _atom_site_symmetry_multiplicity
 _atom_site_fract_x
 _atom_site_fract_y
 _atom_site_fract_z
 _atom_site_occupancy
  Rb  Rb0  1  0.66950539  0.66983954  0.00032238  1
  Rb  Rb1  1  0.08049461  0.08016046  0.99967762  1
  Rb  Rb2  1  0.37500000  0.37500000  0.00000000  1
  Mn  Mn3  1  0.87368403  0.36047976  0.18393927  1
  Mn  Mn4  1  0.62325306  0.11068576  0.18444416  1
  Mn  Mn5  1  0.98845322  0.17260686  0.51265780  1
  Mn  Mn6  1  0.76154678  0.57739314  0.48734220  1
  Mn  Mn7  1  0.51065438  0.32711548  0.48802569  1
  Mn  Mn8  1  0.26130566  0.07771905  0.48580623  1
  Mn  Mn9  1  0.87631597  0.38952024  0.81606073  1
  Mn  Mn10  1  0.62609537  0.14064414  0.81638106  1
  Mn  Mn11  1  0.12390463  0.60935586  0.18361894  1
  Mn  Mn12  1  0.37292513  0.86087231  0.18405166  1
  Mn  Mn13  1  0.73815225  0.92210045  0.51357858  1
  Mn  Mn14  1  0.23934562  0.42288452  0.51197431  1
  Mn  Mn15  1  0.48869434  0.67228095  0.51419377  1
  Mn  Mn16  1  0.01184775  0.82789955  0.48642142  1
  Mn  Mn17  1  0.37707487  0.88912769  0.81594834  1
  Mn  Mn18  1  0.12674694  0.63931424  0.81555584  1
  O  O19  1  0.84378663  0.20817682  0.04951950  1
  O  O20  1  0.87497389  0.16602334  0.37383453  1
  O  O21  1  0.90659250  0.52979340  0.29283432  1
  O  O22  1  0.40596171  0.03269058  0.29100236  1
  O  O23  1  0.65625075  0.28263479  0.29174344  1
  O  O24  1  0.84340750  0.22020660  0.70716568  1
  O  O25  1  0.63226226  0.58306359  0.36530812  1
  O  O26  1  0.38469289  0.33527485  0.36012726  1
  O  O27  1  0.13322338  0.08295060  0.35902829  1
  O  O28  1  0.88092198  0.83160827  0.36425522  1
  O  O29  1  0.37407405  0.08280001  0.62544680  1
  O  O30  1  0.62406021  0.33326104  0.62644415  1
  O  O31  1  0.87502611  0.58397666  0.62616647  1
  O  O32  1  0.09581282  0.45502631  0.05042520  1
  O  O33  1  0.34752059  0.70723021  0.04992551  1
  O  O34  1  0.59456610  0.96012133  0.04949498  1
  O  O35  1  0.90621337  0.54182318  0.95048050  1
  O  O36  1  0.40247941  0.04276979  0.95007449  1
  O  O37  1  0.65418718  0.29497369  0.94957480  1
  O  O38  1  0.37592595  0.66719999  0.37455320  1
  O  O39  1  0.12593979  0.41673896  0.37355585  1
  O  O40  1  0.62373707  0.91679534  0.37703681  1
  O  O41  1  0.36530711  0.41472515  0.63987274  1
  O  O42  1  0.11773774  0.16693641  0.63469188  1
  O  O43  1  0.61677662  0.66704940  0.64097171  1
  O  O44  1  0.86907802  0.91839173  0.63574478  1
  O  O45  1  0.15574017  0.78157990  0.29055423  1
  O  O46  1  0.59425983  0.96842010  0.70944577  1
  O  O47  1  0.09374925  0.46736521  0.70825656  1
  O  O48  1  0.34403829  0.71730942  0.70899764  1
  O  O49  1  0.12626293  0.83320466  0.62296319  1
  O  O50  1  0.15543390  0.78987867  0.95050502  1
