# generated using pymatgen
data_KBaFe2(PO4)3
_symmetry_space_group_name_H-M   'P 1'
_cell_length_a   10.02330100
_cell_length_b   10.02330100
_cell_length_c   10.02330100
_cell_angle_alpha   90.00000000
_cell_angle_beta   90.00000000
_cell_angle_gamma   90.00000000
_symmetry_Int_Tables_number   1
_chemical_formula_structural   KBaFe2(PO4)3
_chemical_formula_sum   'K4 Ba4 Fe8 P12 O48'
_cell_volume   1007.00660075
_cell_formula_units_Z   4
loop_
 _symmetry_equiv_pos_site_id
 _symmetry_equiv_pos_as_xyz
  1  'x, y, z'
loop_
 _atom_site_type_symbol
 _atom_site_label
 _atom_site_symmetry_multiplicity
 _atom_site_fract_x
 _atom_site_fract_y
 _atom_site_fract_z
 _atom_site_occupancy
  K  K0  1  0.20247900  0.70247900  0.79752100  1
  K  K1  1  0.29752100  0.29752100  0.29752100  1
  K  K2  1  0.70247900  0.79752100  0.20247900  1
  K  K3  1  0.79752100  0.20247900  0.70247900  1
  Ba  Ba4  1  0.06752000  0.06752000  0.06752000  1
  Ba  Ba5  1  0.43248000  0.93248000  0.56752000  1
  Ba  Ba6  1  0.56752000  0.43248000  0.93248000  1
  Ba  Ba7  1  0.93248000  0.56752000  0.43248000  1
  Fe  Fe8  1  0.08576800  0.91423200  0.41423200  1
  Fe  Fe9  1  0.14866700  0.35133300  0.64866700  1
  Fe  Fe10  1  0.35133300  0.64866700  0.14866700  1
  Fe  Fe11  1  0.41423200  0.08576800  0.91423200  1
  Fe  Fe12  1  0.58576800  0.58576800  0.58576800  1
  Fe  Fe13  1  0.64866700  0.14866700  0.35133300  1
  Fe  Fe14  1  0.85133300  0.85133300  0.85133300  1
  Fe  Fe15  1  0.91423200  0.41423200  0.08576800  1
  P  P16  1  0.03863700  0.72718900  0.12686500  1
  P  P17  1  0.12686500  0.03863700  0.72718900  1
  P  P18  1  0.22718900  0.37313500  0.96136300  1
  P  P19  1  0.27281100  0.62686500  0.46136300  1
  P  P20  1  0.37313500  0.96136300  0.22718900  1
  P  P21  1  0.46136300  0.27281100  0.62686500  1
  P  P22  1  0.53863700  0.77281100  0.87313500  1
  P  P23  1  0.62686500  0.46136300  0.27281100  1
  P  P24  1  0.72718900  0.12686500  0.03863700  1
  P  P25  1  0.77281100  0.87313500  0.53863700  1
  P  P26  1  0.87313500  0.53863700  0.77281100  1
  P  P27  1  0.96136300  0.22718900  0.37313500  1
  O  O28  1  0.99956500  0.08019000  0.34690000  1
  O  O29  1  0.01542900  0.80136300  0.26144000  1
  O  O30  1  0.02446300  0.94759600  0.79857200  1
  O  O31  1  0.05240400  0.29857200  0.47553700  1
  O  O32  1  0.07906600  0.18506500  0.73970600  1
  O  O33  1  0.08019000  0.34690000  0.99956500  1
  O  O34  1  0.15310000  0.00043500  0.58019000  1
  O  O35  1  0.18506500  0.73970600  0.07906600  1
  O  O36  1  0.19863700  0.76144000  0.48457100  1
  O  O37  1  0.20142800  0.52446300  0.55240400  1
  O  O38  1  0.23856000  0.98457100  0.30136300  1
  O  O39  1  0.23970600  0.42093400  0.81493500  1
  O  O40  1  0.26029400  0.57906600  0.31493500  1
  O  O41  1  0.26144000  0.01542900  0.80136300  1
  O  O42  1  0.29857200  0.47553700  0.05240400  1
  O  O43  1  0.30136300  0.23856000  0.98457100  1
  O  O44  1  0.31493500  0.26029400  0.57906600  1
  O  O45  1  0.34690000  0.99956500  0.08019000  1
  O  O46  1  0.41981000  0.65310000  0.49956500  1
  O  O47  1  0.42093400  0.81493500  0.23970600  1
  O  O48  1  0.44759600  0.70142800  0.97553700  1
  O  O49  1  0.47553700  0.05240400  0.29857200  1
  O  O50  1  0.48457100  0.19863700  0.76144000  1
  O  O51  1  0.50043500  0.91981000  0.84690000  1
  O  O52  1  0.49956500  0.41981000  0.65310000  1
  O  O53  1  0.51542900  0.69863700  0.73856000  1
  O  O54  1  0.52446300  0.55240400  0.20142800  1
  O  O55  1  0.55240400  0.20142800  0.52446300  1
  O  O56  1  0.57906600  0.31493500  0.26029400  1
  O  O57  1  0.58019000  0.15310000  0.00043500  1
  O  O58  1  0.65310000  0.49956500  0.41981000  1
  O  O59  1  0.68506500  0.76029400  0.92093400  1
  O  O60  1  0.69863700  0.73856000  0.51542900  1
  O  O61  1  0.70142800  0.97553700  0.44759600  1
  O  O62  1  0.73856000  0.51542900  0.69863700  1
  O  O63  1  0.73970600  0.07906600  0.18506500  1
  O  O64  1  0.76029400  0.92093400  0.68506500  1
  O  O65  1  0.76144000  0.48457100  0.19863700  1
  O  O66  1  0.79857200  0.02446300  0.94759600  1
  O  O67  1  0.80136300  0.26144000  0.01542900  1
  O  O68  1  0.81493500  0.23970600  0.42093400  1
  O  O69  1  0.84690000  0.50043500  0.91981000  1
  O  O70  1  0.91981000  0.84690000  0.50043500  1
  O  O71  1  0.92093400  0.68506500  0.76029400  1
  O  O72  1  0.94759600  0.79857200  0.02446300  1
  O  O73  1  0.97553700  0.44759600  0.70142800  1
  O  O74  1  0.98457100  0.30136300  0.23856000  1
  O  O75  1  0.00043500  0.58019000  0.15310000  1
