# generated using pymatgen
data_Gd2W2O9
_symmetry_space_group_name_H-M   'P 1'
_cell_length_a   9.82959900
_cell_length_b   7.71717100
_cell_length_c   9.28450047
_cell_angle_alpha   71.85247220
_cell_angle_beta   90.00000000
_cell_angle_gamma   90.00000000
_symmetry_Int_Tables_number   1
_chemical_formula_structural   Gd2W2O9
_chemical_formula_sum   'Gd8 W8 O36'
_cell_volume   669.25844742
_cell_formula_units_Z   4
loop_
 _symmetry_equiv_pos_site_id
 _symmetry_equiv_pos_as_xyz
  1  'x, y, z'
loop_
 _atom_site_type_symbol
 _atom_site_label
 _atom_site_symmetry_multiplicity
 _atom_site_fract_x
 _atom_site_fract_y
 _atom_site_fract_z
 _atom_site_occupancy
  Gd  Gd0  1  0.05595500  0.77311200  0.65436300  1
  Gd  Gd1  1  0.45001100  0.71108200  0.57092300  1
  Gd  Gd2  1  0.44404500  0.77311200  0.15436300  1
  Gd  Gd3  1  0.04998900  0.71108200  0.07092300  1
  Gd  Gd4  1  0.95001100  0.28891800  0.92907700  1
  Gd  Gd5  1  0.55595500  0.22688800  0.84563700  1
  Gd  Gd6  1  0.54998900  0.28891800  0.42907700  1
  Gd  Gd7  1  0.94404500  0.22688800  0.34563700  1
  W  W8  1  0.74852300  0.92905300  0.73724200  1
  W  W9  1  0.75147700  0.92905300  0.23724200  1
  W  W10  1  0.27248500  0.42559000  0.96390800  1
  W  W11  1  0.77248500  0.57441000  0.53609200  1
  W  W12  1  0.22751500  0.42559000  0.46390800  1
  W  W13  1  0.72751500  0.57441000  0.03609200  1
  W  W14  1  0.24852300  0.07094700  0.76275800  1
  W  W15  1  0.25147700  0.07094700  0.26275800  1
  O  O16  1  0.38404300  0.99409500  0.90629300  1
  O  O17  1  0.08865300  0.94313000  0.84934300  1
  O  O18  1  0.28168200  0.89544000  0.66438300  1
  O  O19  1  0.11595700  0.99409500  0.40629300  1
  O  O20  1  0.41134700  0.94313000  0.34934300  1
  O  O21  1  0.61850400  0.77294100  0.91976300  1
  O  O22  1  0.86484800  0.73169000  0.86100400  1
  O  O23  1  0.21831800  0.89544000  0.16438300  1
  O  O24  1  0.68208800  0.74144000  0.63899800  1
  O  O25  1  0.88149600  0.77294100  0.41976300  1
  O  O26  1  0.10295300  0.55877900  0.89078800  1
  O  O27  1  0.63515200  0.73169000  0.36100400  1
  O  O28  1  0.40615400  0.50403000  0.81807500  1
  O  O29  1  0.81791200  0.74144000  0.13899800  1
  O  O30  1  0.20448300  0.59670200  0.56702400  1
  O  O31  1  0.70448300  0.40329800  0.93297600  1
  O  O32  1  0.90615400  0.49597000  0.68192500  1
  O  O33  1  0.39704700  0.55877900  0.39078800  1
  O  O34  1  0.60295300  0.44122100  0.60921200  1
  O  O35  1  0.09384600  0.50403000  0.31807500  1
  O  O36  1  0.29551700  0.59670200  0.06702400  1
  O  O37  1  0.79551700  0.40329800  0.43297600  1
  O  O38  1  0.18208800  0.25856000  0.86100200  1
  O  O39  1  0.59384600  0.49597000  0.18192500  1
  O  O40  1  0.36484800  0.26831000  0.63899600  1
  O  O41  1  0.89704700  0.44122100  0.10921200  1
  O  O42  1  0.11850400  0.22705900  0.58023700  1
  O  O43  1  0.31791200  0.25856000  0.36100200  1
  O  O44  1  0.78168200  0.10456000  0.83561700  1
  O  O45  1  0.13515200  0.26831000  0.13899600  1
  O  O46  1  0.38149600  0.22705900  0.08023700  1
  O  O47  1  0.58865300  0.05687000  0.65065700  1
  O  O48  1  0.88404300  0.00590500  0.59370700  1
  O  O49  1  0.71831800  0.10456000  0.33561700  1
  O  O50  1  0.91134700  0.05687000  0.15065700  1
  O  O51  1  0.61595700  0.00590500  0.09370700  1
