# generated using pymatgen
data_Na4Al3Ge3NO14
_symmetry_space_group_name_H-M   'P 1'
_cell_length_a   9.20149571
_cell_length_b   9.20149571
_cell_length_c   9.18401126
_cell_angle_alpha   89.93380255
_cell_angle_beta   89.93380255
_cell_angle_gamma   90.00737944
_symmetry_Int_Tables_number   1
_chemical_formula_structural   Na4Al3Ge3NO14
_chemical_formula_sum   'Na8 Al6 Ge6 N2 O28'
_cell_volume   777.58644285
_cell_formula_units_Z   2
loop_
 _symmetry_equiv_pos_site_id
 _symmetry_equiv_pos_as_xyz
  1  'x, y, z'
loop_
 _atom_site_type_symbol
 _atom_site_label
 _atom_site_symmetry_multiplicity
 _atom_site_fract_x
 _atom_site_fract_y
 _atom_site_fract_z
 _atom_site_occupancy
  Na  Na0  1  0.18037900  0.31991800  0.18078700  1
  Na  Na1  1  0.18087200  0.68051400  0.81877500  1
  Na  Na2  1  0.31991800  0.18037900  0.68078700  1
  Na  Na3  1  0.32106900  0.81903300  0.31988400  1
  Na  Na4  1  0.68051400  0.18087200  0.31877500  1
  Na  Na5  1  0.67922700  0.81868100  0.68047900  1
  Na  Na6  1  0.81903300  0.32106900  0.81988400  1
  Na  Na7  1  0.81868100  0.67922700  0.18047900  1
  Al  Al8  1  0.99968900  0.00017000  0.24999600  1
  Al  Al9  1  0.24995100  0.50008600  0.50011100  1
  Al  Al10  1  0.50010200  0.75012300  0.99988300  1
  Al  Al11  1  0.50008600  0.24995100  0.00011100  1
  Al  Al12  1  0.75012300  0.50010200  0.49988300  1
  Al  Al13  1  0.00017000  0.99968900  0.74999600  1
  Ge  Ge14  1  0.99994300  0.25033100  0.49959800  1
  Ge  Ge15  1  0.25033100  0.99994300  0.99959800  1
  Ge  Ge16  1  0.50007100  0.50031200  0.75000200  1
  Ge  Ge17  1  0.50031200  0.50007100  0.25000200  1
  Ge  Ge18  1  0.74964200  0.99993700  0.00038900  1
  Ge  Ge19  1  0.99993700  0.74964200  0.50038900  1
  N  N20  1  0.03199200  0.49941700  0.00009100  1
  N  N21  1  0.49941700  0.03199200  0.50009100  1
  O  O22  1  0.06936500  0.14563400  0.64511600  1
  O  O23  1  0.06988500  0.85462400  0.35488800  1
  O  O24  1  0.14563400  0.06936500  0.14511600  1
  O  O25  1  0.14472700  0.93044800  0.85564100  1
  O  O26  1  0.14565300  0.35436600  0.43112000  1
  O  O27  1  0.14521800  0.64538900  0.56886200  1
  O  O28  1  0.35502500  0.43043800  0.64550200  1
  O  O29  1  0.35483600  0.56942600  0.35433500  1
  O  O30  1  0.35436600  0.14565300  0.93112000  1
  O  O31  1  0.35436200  0.85473200  0.06950700  1
  O  O32  1  0.43043800  0.35502500  0.14550200  1
  O  O33  1  0.43040400  0.64454800  0.85522600  1
  O  O34  1  0.44221700  0.95809300  0.60209000  1
  O  O35  1  0.55835200  0.95854300  0.39779900  1
  O  O36  1  0.56942600  0.35483600  0.85433500  1
  O  O37  1  0.56942900  0.64474300  0.14498800  1
  O  O38  1  0.64538900  0.14521800  0.06886200  1
  O  O39  1  0.64540900  0.85519600  0.93055000  1
  O  O40  1  0.64454800  0.43040400  0.35522600  1
  O  O41  1  0.64474300  0.56942900  0.64498800  1
  O  O42  1  0.85473200  0.35436200  0.56950700  1
  O  O43  1  0.85519600  0.64540900  0.43055000  1
  O  O44  1  0.85551300  0.92996700  0.14437900  1
  O  O45  1  0.85462400  0.06988500  0.85488800  1
  O  O46  1  0.93044800  0.14472700  0.35564100  1
  O  O47  1  0.92996700  0.85551300  0.64437900  1
  O  O48  1  0.95854300  0.55835200  0.89779900  1
  O  O49  1  0.95809300  0.44221700  0.10209000  1
