# generated using pymatgen
data_Co5CuO8
_symmetry_space_group_name_H-M   'P 1'
_cell_length_a   5.76881858
_cell_length_b   10.08679115
_cell_length_c   5.76747000
_cell_angle_alpha   73.46312310
_cell_angle_beta   119.96141023
_cell_angle_gamma   90.03537135
_symmetry_Int_Tables_number   1
_chemical_formula_structural   Co5CuO8
_chemical_formula_sum   'Co10 Cu2 O16'
_cell_volume   274.64975166
_cell_formula_units_Z   2
loop_
 _symmetry_equiv_pos_site_id
 _symmetry_equiv_pos_as_xyz
  1  'x, y, z'
loop_
 _atom_site_type_symbol
 _atom_site_label
 _atom_site_symmetry_multiplicity
 _atom_site_fract_x
 _atom_site_fract_y
 _atom_site_fract_z
 _atom_site_occupancy
  Co  Co0  1  0.50158300  0.49942400  0.00171200  1
  Co  Co1  1  0.00114000  0.99893500  0.99834200  1
  Co  Co2  1  0.62474400  0.12818200  0.25083600  1
  Co  Co3  1  0.12676200  0.62811300  0.24992600  1
  Co  Co4  1  0.56075300  0.81320400  0.12314200  1
  Co  Co5  1  0.06400800  0.31239400  0.12560900  1
  Co  Co6  1  0.05950800  0.81287500  0.62279200  1
  Co  Co7  1  0.56426800  0.31219600  0.62634200  1
  Co  Co8  1  0.06459600  0.31182900  0.62644100  1
  Co  Co9  1  0.56038500  0.81321700  0.62324100  1
  Cu  Cu10  1  0.81379600  0.56249300  0.62595200  1
  Cu  Cu11  1  0.31195200  0.06241200  0.62588000  1
  O  O12  1  0.69187500  0.91915000  0.38609900  1
  O  O13  1  0.19532400  0.41854500  0.38842800  1
  O  O14  1  0.42838600  0.70783000  0.85941900  1
  O  O15  1  0.93142700  0.20595500  0.86334600  1
  O  O16  1  0.91582900  0.70026100  0.37878500  1
  O  O17  1  0.42076000  0.19807300  0.38285300  1
  O  O18  1  0.20309800  0.92535700  0.41041800  1
  O  O19  1  0.70891800  0.42343300  0.41509700  1
  O  O20  1  0.20407000  0.92402300  0.86922500  1
  O  O21  1  0.70866400  0.42375500  0.87074500  1
  O  O22  1  0.66087900  0.92580100  0.86752200  1
  O  O23  1  0.16327400  0.42410500  0.86974900  1
  O  O24  1  0.96513800  0.19956100  0.38226600  1
  O  O25  1  0.46192200  0.69840100  0.38088800  1
  O  O26  1  0.42064300  0.19982400  0.83877400  1
  O  O27  1  0.91629800  0.70065200  0.83617100  1
