# generated using pymatgen
data_Li9Mn14O32
_symmetry_space_group_name_H-M   'P 1'
_cell_length_a   5.87159718
_cell_length_b   5.87159718
_cell_length_c   19.43612154
_cell_angle_alpha   81.12011535
_cell_angle_beta   81.12011535
_cell_angle_gamma   59.92842711
_symmetry_Int_Tables_number   1
_chemical_formula_structural   Li9Mn14O32
_chemical_formula_sum   'Li9 Mn14 O32'
_cell_volume   570.60200591
_cell_formula_units_Z   1
loop_
 _symmetry_equiv_pos_site_id
 _symmetry_equiv_pos_as_xyz
  1  'x, y, z'
loop_
 _atom_site_type_symbol
 _atom_site_label
 _atom_site_symmetry_multiplicity
 _atom_site_fract_x
 _atom_site_fract_y
 _atom_site_fract_z
 _atom_site_occupancy
  Li  Li0  1  0.09473700  0.09473700  0.22263200  1
  Li  Li1  1  0.39906600  0.39906600  0.28271100  1
  Li  Li2  1  0.35162800  0.35162800  0.46632900  1
  Li  Li3  1  0.87506200  0.87506200  0.37536200  1
  Li  Li4  1  0.65398900  0.65398900  0.52819100  1
  Li  Li5  1  0.24994700  0.24994700  0.74958600  1
  Li  Li6  1  0.59516700  0.59516700  0.71440500  1
  Li  Li7  1  0.90519800  0.90519800  0.78511000  1
  Li  Li8  1  0.84379600  0.84379600  0.96765000  1
  Mn  Mn9  1  0.49959400  0.49959400  0.00063800  1
  Mn  Mn10  1  0.12501900  0.62470500  0.12494800  1
  Mn  Mn11  1  0.62470500  0.12501900  0.12494800  1
  Mn  Mn12  1  0.62571500  0.62571500  0.12452900  1
  Mn  Mn13  1  0.37471800  0.87483700  0.37538900  1
  Mn  Mn14  1  0.75018800  0.75018800  0.25337500  1
  Mn  Mn15  1  0.87483700  0.37471800  0.37538900  1
  Mn  Mn16  1  0.12693100  0.62077300  0.62544800  1
  Mn  Mn17  1  0.12634400  0.12634400  0.62574300  1
  Mn  Mn18  1  0.62077300  0.12693100  0.62544800  1
  Mn  Mn19  1  0.99977200  0.99977200  0.49756100  1
  Mn  Mn20  1  0.37238500  0.37238500  0.87440400  1
  Mn  Mn21  1  0.37240500  0.88117500  0.87431900  1
  Mn  Mn22  1  0.88117500  0.37240500  0.87431900  1
  O  O23  1  0.33210700  0.33210700  0.06532800  1
  O  O24  1  0.33087600  0.76977300  0.06593500  1
  O  O25  1  0.76977300  0.33087600  0.06593500  1
  O  O26  1  0.44058300  0.44058300  0.17881600  1
  O  O27  1  0.02152900  0.56525200  0.31090400  1
  O  O28  1  0.47483600  0.92090200  0.18249200  1
  O  O29  1  0.81118100  0.81118100  0.07040100  1
  O  O30  1  0.06927500  0.06927500  0.32355700  1
  O  O31  1  0.91997900  0.91997900  0.18516400  1
  O  O32  1  0.17306600  0.17306600  0.43439900  1
  O  O33  1  0.18514200  0.72778600  0.43921900  1
  O  O34  1  0.92090200  0.47483600  0.18249200  1
  O  O35  1  0.57722000  0.57722000  0.31585900  1
  O  O36  1  0.56525200  0.02152900  0.31090400  1
  O  O37  1  0.27272000  0.83141900  0.56680100  1
  O  O38  1  0.68085900  0.68085900  0.42693000  1
  O  O39  1  0.72778600  0.18514200  0.43921900  1
  O  O40  1  0.30917400  0.30917400  0.57217200  1
  O  O41  1  0.42691800  0.42691800  0.67719500  1
  O  O42  1  0.42810900  0.96745200  0.67724600  1
  O  O43  1  0.83141900  0.27272000  0.56680100  1
  O  O44  1  0.07218000  0.07218000  0.82283800  1
  O  O45  1  0.83108600  0.83108600  0.56511100  1
  O  O46  1  0.07235200  0.53340300  0.82282400  1
  O  O47  1  0.53340300  0.07235200  0.82282400  1
  O  O48  1  0.93988000  0.93988000  0.67780800  1
  O  O49  1  0.19066300  0.19066300  0.92696600  1
  O  O50  1  0.55957400  0.55957400  0.82240100  1
  O  O51  1  0.96745200  0.42810900  0.67724600  1
  O  O52  1  0.22774500  0.66875900  0.93487900  1
  O  O53  1  0.66879900  0.66879900  0.93476900  1
  O  O54  1  0.66875900  0.22774500  0.93487900  1
