# generated using pymatgen
data_PH11(NO2)2
_symmetry_space_group_name_H-M   'P 1'
_cell_length_a   8.27735700
_cell_length_b   6.37488900
_cell_length_c   12.76716201
_cell_angle_alpha   81.15281369
_cell_angle_beta   90.00000000
_cell_angle_gamma   90.00000000
_symmetry_Int_Tables_number   1
_chemical_formula_structural   PH11(NO2)2
_chemical_formula_sum   'P4 H44 N8 O16'
_cell_volume   665.67229951
_cell_formula_units_Z   4
loop_
 _symmetry_equiv_pos_site_id
 _symmetry_equiv_pos_as_xyz
  1  'x, y, z'
loop_
 _atom_site_type_symbol
 _atom_site_label
 _atom_site_symmetry_multiplicity
 _atom_site_fract_x
 _atom_site_fract_y
 _atom_site_fract_z
 _atom_site_occupancy
  P  P0  1  0.06648600  0.79279100  0.36433000  1
  P  P1  1  0.56648600  0.20720900  0.13567000  1
  P  P2  1  0.93351400  0.20720900  0.63567000  1
  P  P3  1  0.43351400  0.79279100  0.86433000  1
  H  H4  1  0.06328700  0.24483600  0.56244600  1
  H  H5  1  0.56328700  0.75516400  0.93755400  1
  H  H6  1  0.93671300  0.75516400  0.43755400  1
  H  H7  1  0.43671300  0.24483600  0.06244600  1
  H  H8  1  0.79361200  0.32624000  0.80751800  1
  H  H9  1  0.29361200  0.67376000  0.69248200  1
  H  H10  1  0.20638800  0.67376000  0.19248200  1
  H  H11  1  0.70638800  0.32624000  0.30751800  1
  H  H12  1  0.70767100  0.30890100  0.93269900  1
  H  H13  1  0.20767100  0.69109900  0.56730100  1
  H  H14  1  0.29232900  0.69109900  0.06730100  1
  H  H15  1  0.79232900  0.30890100  0.43269900  1
  H  H16  1  0.61503000  0.19005600  0.83841300  1
  H  H17  1  0.11503000  0.80994400  0.66158700  1
  H  H18  1  0.38497000  0.80994400  0.16158700  1
  H  H19  1  0.88497000  0.19005600  0.33841300  1
  H  H20  1  0.61618100  0.45462700  0.82510500  1
  H  H21  1  0.11618100  0.54537300  0.67489500  1
  H  H22  1  0.38381900  0.54537300  0.17489500  1
  H  H23  1  0.88381900  0.45462700  0.32510500  1
  H  H24  1  0.78275200  0.81607900  0.62088800  1
  H  H25  1  0.28275200  0.18392100  0.87911200  1
  H  H26  1  0.21724800  0.18392100  0.37911200  1
  H  H27  1  0.71724800  0.81607900  0.12088800  1
  H  H28  1  0.59998800  0.71649000  0.65870100  1
  H  H29  1  0.09998800  0.28351000  0.84129900  1
  H  H30  1  0.40001200  0.28351000  0.34129900  1
  H  H31  1  0.90001200  0.71649000  0.15870100  1
  H  H32  1  0.72842400  0.56517800  0.59770400  1
  H  H33  1  0.22842400  0.43482200  0.90229600  1
  H  H34  1  0.27157600  0.43482200  0.40229600  1
  H  H35  1  0.77157600  0.56517800  0.09770400  1
  H  H36  1  0.64174100  0.77954800  0.52540300  1
  H  H37  1  0.14174100  0.22045200  0.97459700  1
  H  H38  1  0.35825900  0.22045200  0.47459700  1
  H  H39  1  0.85825900  0.77954800  0.02540300  1
  H  H40  1  0.06798400  0.78889300  0.90696800  1
  H  H41  1  0.56798400  0.21110700  0.59303200  1
  H  H42  1  0.93201600  0.21110700  0.09303200  1
  H  H43  1  0.43201600  0.78889300  0.40696800  1
  H  H44  1  0.93497300  0.87708600  0.82281000  1
  H  H45  1  0.43497300  0.12291400  0.67719000  1
  H  H46  1  0.06502700  0.12291400  0.17719000  1
  H  H47  1  0.56502700  0.87708600  0.32281000  1
  N  N48  1  0.31403100  0.68053100  0.14883400  1
  N  N49  1  0.81403100  0.31946900  0.35116600  1
  N  N50  1  0.68596900  0.31946900  0.85116600  1
  N  N51  1  0.18596900  0.68053100  0.64883400  1
  N  N52  1  0.81174700  0.71993900  0.09999900  1
  N  N53  1  0.31174700  0.28006100  0.40000100  1
  N  N54  1  0.18825300  0.28006100  0.90000100  1
  N  N55  1  0.68825300  0.71993900  0.59999900  1
  O  O56  1  0.21928900  0.70960000  0.42635900  1
  O  O57  1  0.71928900  0.29040000  0.07364100  1
  O  O58  1  0.78071100  0.29040000  0.57364100  1
  O  O59  1  0.28071100  0.70960000  0.92635900  1
  O  O60  1  0.06827000  0.03443000  0.32573000  1
  O  O61  1  0.56827000  0.96557000  0.17427000  1
  O  O62  1  0.93173000  0.96557000  0.67427000  1
  O  O63  1  0.43173000  0.03443000  0.82573000  1
  O  O64  1  0.02713500  0.66272800  0.27505200  1
  O  O65  1  0.52713500  0.33727200  0.22494800  1
  O  O66  1  0.97286500  0.33727200  0.72494800  1
  O  O67  1  0.47286500  0.66272800  0.77505200  1
  O  O68  1  0.95143900  0.82408900  0.89880100  1
  O  O69  1  0.45143900  0.17591100  0.60119900  1
  O  O70  1  0.04856100  0.17591100  0.10119900  1
  O  O71  1  0.54856100  0.82408900  0.39880100  1
