# generated using pymatgen
data_Nb3Sb(PO4)6
_symmetry_space_group_name_H-M   'P 1'
_cell_length_a   9.12933779
_cell_length_b   9.12933779
_cell_length_c   9.12933717
_cell_angle_alpha   58.52819449
_cell_angle_beta   58.52819449
_cell_angle_gamma   58.52819392
_symmetry_Int_Tables_number   1
_chemical_formula_structural   Nb3Sb(PO4)6
_chemical_formula_sum   'Nb3 Sb1 P6 O24'
_cell_volume   519.91361646
_cell_formula_units_Z   1
loop_
 _symmetry_equiv_pos_site_id
 _symmetry_equiv_pos_as_xyz
  1  'x, y, z'
loop_
 _atom_site_type_symbol
 _atom_site_label
 _atom_site_symmetry_multiplicity
 _atom_site_fract_x
 _atom_site_fract_y
 _atom_site_fract_z
 _atom_site_occupancy
  Nb  Nb0  1  0.85944200  0.85944200  0.85944200  1
  Nb  Nb1  1  0.64268400  0.64268400  0.64268400  1
  Nb  Nb2  1  0.35865800  0.35865800  0.35865800  1
  Sb  Sb3  1  0.14020100  0.14020100  0.14020100  1
  P  P4  1  0.54109300  0.96250800  0.24945100  1
  P  P5  1  0.24945100  0.54109300  0.96250800  1
  P  P6  1  0.96250800  0.24945100  0.54109300  1
  P  P7  1  0.03440300  0.74308000  0.47067800  1
  P  P8  1  0.74308000  0.47067800  0.03440300  1
  P  P9  1  0.47067800  0.03440300  0.74308000  1
  O  O10  1  0.51621300  0.87131800  0.69778800  1
  O  O11  1  0.87131800  0.69778800  0.51621300  1
  O  O12  1  0.71693800  0.93767700  0.07661800  1
  O  O13  1  0.69778800  0.51621300  0.87131800  1
  O  O14  1  0.58735200  0.78953900  0.41462000  1
  O  O15  1  0.38339900  0.96718600  0.23314200  1
  O  O16  1  0.07661800  0.71693800  0.93767700  1
  O  O17  1  0.41462000  0.58735200  0.78953900  1
  O  O18  1  0.78953900  0.41462000  0.58735200  1
  O  O19  1  0.00280600  0.77934200  0.63604500  1
  O  O20  1  0.05257200  0.90125200  0.29330200  1
  O  O21  1  0.77934200  0.63604500  0.00280600  1
  O  O22  1  0.23314200  0.38339900  0.96718600  1
  O  O23  1  0.93767700  0.07661800  0.71693800  1
  O  O24  1  0.96718600  0.23314200  0.38339900  1
  O  O25  1  0.20840600  0.56769400  0.44914000  1
  O  O26  1  0.56769400  0.44914000  0.20840600  1
  O  O27  1  0.90125200  0.29330200  0.05257200  1
  O  O28  1  0.63604500  0.00280600  0.77934200  1
  O  O29  1  0.44914000  0.20840600  0.56769400  1
  O  O30  1  0.27669700  0.50319100  0.13556900  1
  O  O31  1  0.29330200  0.05257200  0.90125200  1
  O  O32  1  0.13556900  0.27669700  0.50319100  1
  O  O33  1  0.50319100  0.13556900  0.27669700  1
