# generated using pymatgen
data_Na3Mn2P2(CO7)2
_symmetry_space_group_name_H-M   'P 1'
_cell_length_a   8.35194900
_cell_length_b   8.46937166
_cell_length_c   8.97515115
_cell_angle_alpha   89.98469506
_cell_angle_beta   91.90163684
_cell_angle_gamma   103.63135124
_symmetry_Int_Tables_number   1
_chemical_formula_structural   Na3Mn2P2(CO7)2
_chemical_formula_sum   'Na6 Mn4 P4 C4 O28'
_cell_volume   616.62296832
_cell_formula_units_Z   2
loop_
 _symmetry_equiv_pos_site_id
 _symmetry_equiv_pos_as_xyz
  1  'x, y, z'
loop_
 _atom_site_type_symbol
 _atom_site_label
 _atom_site_symmetry_multiplicity
 _atom_site_fract_x
 _atom_site_fract_y
 _atom_site_fract_z
 _atom_site_occupancy
  Na  Na0  1  0.61815100  0.61706900  0.76335200  1
  Na  Na1  1  0.38623900  0.87489500  0.75921600  1
  Na  Na2  1  0.10746400  0.13992000  0.75418200  1
  Na  Na3  1  0.89253600  0.86008000  0.24581800  1
  Na  Na4  1  0.61376100  0.12510500  0.24078400  1
  Na  Na5  1  0.38184900  0.38293100  0.23664800  1
  Mn  Mn6  1  0.52828200  0.26719600  0.65811100  1
  Mn  Mn7  1  0.01817200  0.76147700  0.64766500  1
  Mn  Mn8  1  0.47171800  0.73280400  0.34188900  1
  Mn  Mn9  1  0.98182800  0.23852300  0.35233500  1
  P  P10  1  0.73370600  0.97099500  0.57422700  1
  P  P11  1  0.23051400  0.48867600  0.57353300  1
  P  P12  1  0.76948600  0.51132400  0.42646700  1
  P  P13  1  0.26629400  0.02900500  0.42577300  1
  C  C14  1  0.99468500  0.73990600  0.91939700  1
  C  C15  1  0.48807800  0.24166600  0.92532900  1
  C  C16  1  0.51192200  0.75833400  0.07467100  1
  C  C17  1  0.00531500  0.26009400  0.08060300  1
  O  O18  1  0.53077400  0.77138000  0.93751400  1
  O  O19  1  0.02303500  0.26913600  0.94552700  1
  O  O20  1  0.60354500  0.35067900  0.86307300  1
  O  O21  1  0.10889400  0.84893600  0.85150600  1
  O  O22  1  0.89989800  0.64275400  0.81936400  1
  O  O23  1  0.39317100  0.14501800  0.82494000  1
  O  O24  1  0.87134900  0.91116600  0.66516900  1
  O  O25  1  0.35167100  0.43391100  0.68103100  1
  O  O26  1  0.66832300  0.08465000  0.67344300  1
  O  O27  1  0.17145500  0.62449600  0.65944500  1
  O  O28  1  0.59059100  0.82030100  0.53203500  1
  O  O29  1  0.69404800  0.44632200  0.57545600  1
  O  O30  1  0.19456100  0.94863900  0.57358100  1
  O  O31  1  0.08451300  0.33758200  0.53546800  1
  O  O32  1  0.91548700  0.66241800  0.46453200  1
  O  O33  1  0.80543900  0.05136100  0.42641900  1
  O  O34  1  0.30595200  0.55367800  0.42454400  1
  O  O35  1  0.40940900  0.17969900  0.46796500  1
  O  O36  1  0.82854500  0.37550400  0.34055500  1
  O  O37  1  0.64832900  0.56608900  0.31896900  1
  O  O38  1  0.33167700  0.91535000  0.32655700  1
  O  O39  1  0.12865100  0.08883400  0.33483100  1
  O  O40  1  0.60682900  0.85498200  0.17506000  1
  O  O41  1  0.10010200  0.35724600  0.18063600  1
  O  O42  1  0.89110600  0.15106400  0.14849400  1
  O  O43  1  0.39645500  0.64932100  0.13692700  1
  O  O44  1  0.97696500  0.73086400  0.05447300  1
  O  O45  1  0.46922600  0.22862000  0.06248600  1
