# generated using pymatgen
data_Na2CrPCO7
_symmetry_space_group_name_H-M   'P 1'
_cell_length_a   5.24211557
_cell_length_b   9.01903859
_cell_length_c   6.53792600
_cell_angle_alpha   90.00171449
_cell_angle_beta   89.99890850
_cell_angle_gamma   88.17464149
_symmetry_Int_Tables_number   1
_chemical_formula_structural   Na2CrPCO7
_chemical_formula_sum   'Na4 Cr2 P2 C2 O14'
_cell_volume   308.94872204
_cell_formula_units_Z   2
loop_
 _symmetry_equiv_pos_site_id
 _symmetry_equiv_pos_as_xyz
  1  'x, y, z'
loop_
 _atom_site_type_symbol
 _atom_site_label
 _atom_site_symmetry_multiplicity
 _atom_site_fract_x
 _atom_site_fract_y
 _atom_site_fract_z
 _atom_site_occupancy
  Na  Na0  1  0.23898200  0.23212800  0.49119500  1
  Na  Na1  1  0.23895600  0.23212400  0.00881500  1
  Na  Na2  1  0.76091900  0.76778300  0.50888100  1
  Na  Na3  1  0.76092500  0.76780300  0.99117500  1
  Cr  Cr4  1  0.21338200  0.64832700  0.25004700  1
  Cr  Cr5  1  0.78646200  0.35166300  0.75001200  1
  P  P6  1  0.71727300  0.42499500  0.24998600  1
  P  P7  1  0.28270300  0.57491200  0.74996600  1
  C  C8  1  0.72395800  0.08254500  0.75000700  1
  C  C9  1  0.27615100  0.91755000  0.25001400  1
  O  O10  1  0.30972400  0.05409800  0.25001400  1
  O  O11  1  0.69028100  0.94600500  0.75003700  1
  O  O12  1  0.94905100  0.14359600  0.74998300  1
  O  O13  1  0.05098500  0.85652600  0.25000300  1
  O  O14  1  0.53463400  0.18403300  0.74999600  1
  O  O15  1  0.46539300  0.81608100  0.25000300  1
  O  O16  1  0.15014000  0.42308800  0.74998900  1
  O  O17  1  0.84996300  0.57683200  0.25000200  1
  O  O18  1  0.42032000  0.45294000  0.24999700  1
  O  O19  1  0.57973700  0.54708900  0.74998900  1
  O  O20  1  0.79813700  0.33346900  0.05921200  1
  O  O21  1  0.79813700  0.33344900  0.44073100  1
  O  O22  1  0.20189200  0.66648400  0.55919300  1
  O  O23  1  0.20189400  0.66648300  0.94075300  1
