# generated using pymatgen
data_Li2NbV3O8
_symmetry_space_group_name_H-M   'P 1'
_cell_length_a   6.01159749
_cell_length_b   6.01159749
_cell_length_c   9.76651900
_cell_angle_alpha   90.00000000
_cell_angle_beta   90.00000000
_cell_angle_gamma   119.99999442
_symmetry_Int_Tables_number   1
_chemical_formula_structural   Li2NbV3O8
_chemical_formula_sum   'Li4 Nb2 V6 O16'
_cell_volume   305.66818960
_cell_formula_units_Z   2
loop_
 _symmetry_equiv_pos_site_id
 _symmetry_equiv_pos_as_xyz
  1  'x, y, z'
loop_
 _atom_site_type_symbol
 _atom_site_label
 _atom_site_symmetry_multiplicity
 _atom_site_fract_x
 _atom_site_fract_y
 _atom_site_fract_z
 _atom_site_occupancy
  Li  Li0  1  0.33333300  0.66666700  0.89894200  1
  Li  Li1  1  0.00000000  0.00000000  0.99287000  1
  Li  Li2  1  0.00000000  0.00000000  0.49287000  1
  Li  Li3  1  0.66666700  0.33333300  0.39894200  1
  Nb  Nb4  1  0.33333300  0.66666700  0.49088500  1
  Nb  Nb5  1  0.66666700  0.33333300  0.99088500  1
  V  V6  1  0.17052700  0.82947300  0.21502500  1
  V  V7  1  0.17052700  0.34105400  0.21502500  1
  V  V8  1  0.65894600  0.82947300  0.21502500  1
  V  V9  1  0.34105400  0.17052700  0.71502500  1
  V  V10  1  0.82947300  0.65894600  0.71502500  1
  V  V11  1  0.82947300  0.17052700  0.71502500  1
  O  O12  1  0.16790800  0.83209200  0.59248200  1
  O  O13  1  0.03794900  0.51897400  0.34410800  1
  O  O14  1  0.33333300  0.66666700  0.10780400  1
  O  O15  1  0.00000000  0.00000000  0.30856900  1
  O  O16  1  0.00000000  0.00000000  0.80856900  1
  O  O17  1  0.16790800  0.33581600  0.59248200  1
  O  O18  1  0.48102600  0.96205100  0.34410800  1
  O  O19  1  0.48102600  0.51897400  0.34410800  1
  O  O20  1  0.33581600  0.16790800  0.09248200  1
  O  O21  1  0.66418400  0.83209200  0.59248200  1
  O  O22  1  0.51897400  0.48102600  0.84410800  1
  O  O23  1  0.51897400  0.03794900  0.84410800  1
  O  O24  1  0.66666700  0.33333300  0.60780400  1
  O  O25  1  0.83209200  0.66418400  0.09248200  1
  O  O26  1  0.96205100  0.48102600  0.84410800  1
  O  O27  1  0.83209200  0.16790800  0.09248200  1
