# generated using pymatgen
data_LiP4WO12
_symmetry_space_group_name_H-M   'P 1'
_cell_length_a   7.46096705
_cell_length_b   7.47128891
_cell_length_c   10.03880629
_cell_angle_alpha   81.45450576
_cell_angle_beta   70.34479363
_cell_angle_gamma   110.47589808
_symmetry_Int_Tables_number   1
_chemical_formula_structural   LiP4WO12
_chemical_formula_sum   'Li2 P8 W2 O24'
_cell_volume   470.67264468
_cell_formula_units_Z   2
loop_
 _symmetry_equiv_pos_site_id
 _symmetry_equiv_pos_as_xyz
  1  'x, y, z'
loop_
 _atom_site_type_symbol
 _atom_site_label
 _atom_site_symmetry_multiplicity
 _atom_site_fract_x
 _atom_site_fract_y
 _atom_site_fract_z
 _atom_site_occupancy
  Li  Li0  1  0.22689220  0.97443797  0.74924732  1
  Li  Li1  1  0.77879611  0.03115349  0.24640025  1
  P  P2  1  0.00195808  0.68533949  0.30380393  1
  P  P3  1  0.27182243  0.72948822  0.47140133  1
  P  P4  1  0.70370002  0.74315900  0.02422202  1
  P  P5  1  0.51081172  0.69437758  0.80667454  1
  P  P6  1  0.48869482  0.30395777  0.19255598  1
  P  P7  1  0.29730281  0.25420073  0.97361883  1
  P  P8  1  0.73217654  0.27477135  0.52365180  1
  P  P9  1  0.00421018  0.31814846  0.69020853  1
  W  W10  1  0.99944473  0.49849498  0.99876521  1
  W  W11  1  0.99932987  0.99960945  0.49882446  1
  O  O12  1  0.04162799  0.65930277  0.15398946  1
  O  O13  1  0.12335161  0.80047541  0.57103735  1
  O  O14  1  0.19691488  0.68547133  0.33860235  1
  O  O15  1  0.50135356  0.84654016  0.40738688  1
  O  O16  1  0.30561901  0.70728286  0.82552315  1
  O  O17  1  0.21209187  0.50398824  0.56417230  1
  O  O18  1  0.12088347  0.29760916  0.07229825  1
  O  O19  1  0.75265765  0.90460225  0.09170112  1
  O  O20  1  0.57388771  0.77944285  0.93020278  1
  O  O21  1  0.68420973  0.80072139  0.65533836  1
  O  O22  1  0.52542073  0.53343077  0.15397771  1
  O  O23  1  0.03392462  0.13074979  0.67294024  1
  O  O24  1  0.97060128  0.87162825  0.32223934  1
  O  O25  1  0.47536846  0.46509396  0.84498726  1
  O  O26  1  0.31475709  0.19920924  0.34374911  1
  O  O27  1  0.42512707  0.21873809  0.06936621  1
  O  O28  1  0.25277978  0.09255920  0.90581296  1
  O  O29  1  0.87665745  0.69699016  0.92419362  1
  O  O30  1  0.79461578  0.49994666  0.42986010  1
  O  O31  1  0.69343364  0.28971363  0.17367056  1
  O  O32  1  0.50197067  0.16245308  0.58937338  1
  O  O33  1  0.81051872  0.31943567  0.65461488  1
  O  O34  1  0.87647441  0.19931101  0.42481355  1
  O  O35  1  0.96244430  0.34210156  0.84070688  1
