# generated using pymatgen
data_V2OF5
_symmetry_space_group_name_H-M   'P 1'
_cell_length_a   5.22989997
_cell_length_b   5.43843990
_cell_length_c   5.26447350
_cell_angle_alpha   118.78967193
_cell_angle_beta   119.24441836
_cell_angle_gamma   90.87144092
_symmetry_Int_Tables_number   1
_chemical_formula_structural   V2OF5
_chemical_formula_sum   'V2 O1 F5'
_cell_volume   108.18375841
_cell_formula_units_Z   1
loop_
 _symmetry_equiv_pos_site_id
 _symmetry_equiv_pos_as_xyz
  1  'x, y, z'
loop_
 _atom_site_type_symbol
 _atom_site_label
 _atom_site_symmetry_multiplicity
 _atom_site_fract_x
 _atom_site_fract_y
 _atom_site_fract_z
 _atom_site_occupancy
  V  V0  1  0.68594100  0.99406900  0.32532500  1
  V  V1  1  0.15731000  0.47226000  0.31754600  1
  O  O2  1  0.97073900  0.21862600  0.39389000  1
  F  F3  1  0.33411000  0.73329600  0.23774000  1
  F  F4  1  0.39045800  0.20552600  0.20341900  1
  F  F5  1  0.50391500  0.71091700  0.81928100  1
  F  F6  1  0.91227800  0.73180300  0.42213800  1
  F  F7  1  0.80640400  0.22873700  0.81413900  1
