# generated using pymatgen
data_Na2MnPCO7
_symmetry_space_group_name_H-M   'P 1'
_cell_length_a   8.49170300
_cell_length_b   8.53902108
_cell_length_c   8.88033193
_cell_angle_alpha   90.82783838
_cell_angle_beta   90.83252263
_cell_angle_gamma   104.70731555
_symmetry_Int_Tables_number   1
_chemical_formula_structural   Na2MnPCO7
_chemical_formula_sum   'Na8 Mn4 P4 C4 O28'
_cell_volume   622.64715979
_cell_formula_units_Z   4
loop_
 _symmetry_equiv_pos_site_id
 _symmetry_equiv_pos_as_xyz
  1  'x, y, z'
loop_
 _atom_site_type_symbol
 _atom_site_label
 _atom_site_symmetry_multiplicity
 _atom_site_fract_x
 _atom_site_fract_y
 _atom_site_fract_z
 _atom_site_occupancy
  Na  Na0  1  0.37114100  0.37799900  0.24042900  1
  Na  Na1  1  0.64204600  0.11553200  0.24916500  1
  Na  Na2  1  0.13567100  0.62253400  0.25447700  1
  Na  Na3  1  0.13574900  0.13098100  0.75270100  1
  Na  Na4  1  0.86101200  0.36538400  0.75528500  1
  Na  Na5  1  0.61627700  0.61208100  0.75479100  1
  Na  Na6  1  0.38141000  0.88673700  0.75116400  1
  Na  Na7  1  0.99712200  0.76745400  0.93181900  1
  Mn  Mn8  1  0.73631000  0.49226500  0.35038300  1
  Mn  Mn9  1  0.22744600  0.98489700  0.35178200  1
  Mn  Mn10  1  0.26431900  0.51750100  0.64843400  1
  Mn  Mn11  1  0.76691300  0.01450100  0.64584900  1
  P  P12  1  0.02170700  0.27395300  0.41935400  1
  P  P13  1  0.51793000  0.76868300  0.42111600  1
  P  P14  1  0.47760400  0.22849600  0.57545200  1
  P  P15  1  0.97931700  0.72731200  0.58284100  1
  C  C16  1  0.26163200  0.00777500  0.07104100  1
  C  C17  1  0.76760600  0.51390700  0.06954600  1
  C  C18  1  0.23857900  0.49018300  0.92655100  1
  C  C19  1  0.73929900  0.98979500  0.92442800  1
  O  O20  1  0.23313400  0.48997300  0.06668300  1
  O  O21  1  0.73342600  0.98649000  0.06284000  1
  O  O22  1  0.65410100  0.41095400  0.14425200  1
  O  O23  1  0.15397800  0.89876800  0.14695800  1
  O  O24  1  0.36402600  0.11174000  0.15424100  1
  O  O25  1  0.87694100  0.61035500  0.15334800  1
  O  O26  1  0.09387000  0.15735500  0.32639400  1
  O  O27  1  0.57261800  0.63495200  0.33337500  1
  O  O28  1  0.88947700  0.33011700  0.32982800  1
  O  O29  1  0.38963400  0.82645900  0.32786900  1
  O  O30  1  0.16630400  0.43018000  0.45552300  1
  O  O31  1  0.54422200  0.29329800  0.42084200  1
  O  O32  1  0.05389300  0.79217400  0.43285300  1
  O  O33  1  0.66521400  0.91832000  0.45748600  1
  O  O34  1  0.32526100  0.07655000  0.54613700  1
  O  O35  1  0.95506600  0.20081800  0.57249800  1
  O  O36  1  0.44739200  0.70242200  0.57620000  1
  O  O37  1  0.82691300  0.57856000  0.54822100  1
  O  O38  1  0.60496500  0.17049500  0.66970900  1
  O  O39  1  0.41772300  0.35588000  0.66760900  1
  O  O40  1  0.09969300  0.66705600  0.68627800  1
  O  O41  1  0.92267600  0.85447000  0.67926400  1
  O  O42  1  0.13768300  0.38961400  0.83553300  1
  O  O43  1  0.64180300  0.88734700  0.83015500  1
  O  O44  1  0.85121100  0.09849200  0.84992100  1
  O  O45  1  0.34951400  0.59861100  0.85263500  1
  O  O46  1  0.25379900  0.00154800  0.92843500  1
  O  O47  1  0.76743300  0.51798600  0.92674500  1
