# generated using pymatgen
data_MgTi5O10
_symmetry_space_group_name_H-M   'P 1'
_cell_length_a   10.06509600
_cell_length_b   5.26818900
_cell_length_c   7.55524128
_cell_angle_alpha   70.62909037
_cell_angle_beta   90.00000000
_cell_angle_gamma   90.00000000
_symmetry_Int_Tables_number   1
_chemical_formula_structural   MgTi5O10
_chemical_formula_sum   'Mg2 Ti10 O20'
_cell_volume   377.93700698
_cell_formula_units_Z   2
loop_
 _symmetry_equiv_pos_site_id
 _symmetry_equiv_pos_as_xyz
  1  'x, y, z'
loop_
 _atom_site_type_symbol
 _atom_site_label
 _atom_site_symmetry_multiplicity
 _atom_site_fract_x
 _atom_site_fract_y
 _atom_site_fract_z
 _atom_site_occupancy
  Mg  Mg0  1  0.75000000  0.95851400  0.65296500  1
  Mg  Mg1  1  0.25000000  0.04148600  0.34703500  1
  Ti  Ti2  1  0.43883600  0.04505000  0.67890600  1
  Ti  Ti3  1  0.06116400  0.04505000  0.67890600  1
  Ti  Ti4  1  0.93883600  0.95495000  0.32109400  1
  Ti  Ti5  1  0.56116400  0.95495000  0.32109400  1
  Ti  Ti6  1  0.43600800  0.54606200  0.18362600  1
  Ti  Ti7  1  0.06399200  0.54606200  0.18362600  1
  Ti  Ti8  1  0.75000000  0.45582100  0.15383700  1
  Ti  Ti9  1  0.25000000  0.54417900  0.84616300  1
  Ti  Ti10  1  0.56399200  0.45393800  0.81637400  1
  Ti  Ti11  1  0.93600800  0.45393800  0.81637400  1
  O  O12  1  0.61210600  0.18241100  0.72829300  1
  O  O13  1  0.88789400  0.18241100  0.72829300  1
  O  O14  1  0.06777000  0.21893500  0.40433900  1
  O  O15  1  0.43223000  0.21893500  0.40433900  1
  O  O16  1  0.25000000  0.90358100  0.64344900  1
  O  O17  1  0.75000000  0.09641900  0.35655100  1
  O  O18  1  0.56777000  0.78106500  0.59566100  1
  O  O19  1  0.93223000  0.78106500  0.59566100  1
  O  O20  1  0.38789400  0.81758900  0.27170700  1
  O  O21  1  0.11210600  0.81758900  0.27170700  1
  O  O22  1  0.61906300  0.67709500  0.22487000  1
  O  O23  1  0.88093700  0.67709500  0.22487000  1
  O  O24  1  0.06971400  0.71459700  0.90654700  1
  O  O25  1  0.43028600  0.71459700  0.90654700  1
  O  O26  1  0.25000000  0.41585600  0.12804300  1
  O  O27  1  0.75000000  0.58414400  0.87195700  1
  O  O28  1  0.93028600  0.28540300  0.09345300  1
  O  O29  1  0.56971400  0.28540300  0.09345300  1
  O  O30  1  0.38093700  0.32290500  0.77513000  1
  O  O31  1  0.11906300  0.32290500  0.77513000  1
