# generated using pymatgen
data_Na3CoAsCO7
_symmetry_space_group_name_H-M   'P 1'
_cell_length_a   5.26956386
_cell_length_b   18.30061664
_cell_length_c   6.86657500
_cell_angle_alpha   89.99941944
_cell_angle_beta   89.99942702
_cell_angle_gamma   88.90487835
_symmetry_Int_Tables_number   1
_chemical_formula_structural   Na3CoAsCO7
_chemical_formula_sum   'Na12 Co4 As4 C4 O28'
_cell_volume   662.06591477
_cell_formula_units_Z   4
loop_
 _symmetry_equiv_pos_site_id
 _symmetry_equiv_pos_as_xyz
  1  'x, y, z'
loop_
 _atom_site_type_symbol
 _atom_site_label
 _atom_site_symmetry_multiplicity
 _atom_site_fract_x
 _atom_site_fract_y
 _atom_site_fract_z
 _atom_site_occupancy
  Na  Na0  1  0.76204100  0.04033200  0.24999400  1
  Na  Na1  1  0.76221600  0.54035000  0.24999800  1
  Na  Na2  1  0.23807300  0.45963400  0.75000400  1
  Na  Na3  1  0.23807000  0.95964600  0.75000600  1
  Na  Na4  1  0.25146200  0.13008400  0.00455900  1
  Na  Na5  1  0.25152300  0.63009300  0.00457100  1
  Na  Na6  1  0.25143200  0.13008700  0.49544500  1
  Na  Na7  1  0.25147700  0.63008800  0.49544000  1
  Na  Na8  1  0.74834800  0.36988600  0.50457700  1
  Na  Na9  1  0.74860100  0.86993500  0.50458300  1
  Na  Na10  1  0.74834600  0.36988600  0.99543000  1
  Na  Na11  1  0.74859400  0.86992700  0.99539800  1
  Co  Co12  1  0.78299000  0.67046100  0.74999200  1
  Co  Co13  1  0.21703100  0.32963800  0.25000300  1
  Co  Co14  1  0.78282300  0.17031200  0.74999100  1
  Co  Co15  1  0.21699200  0.82958300  0.25000200  1
  As  As16  1  0.70186800  0.20865900  0.24999600  1
  As  As17  1  0.70197900  0.70866400  0.25000000  1
  As  As18  1  0.29794600  0.29133600  0.75000400  1
  As  As19  1  0.29802800  0.79133300  0.75000100  1
  C  C20  1  0.72698100  0.02929300  0.75000000  1
  C  C21  1  0.72707000  0.52926800  0.75000100  1
  C  C22  1  0.27313100  0.47071200  0.25000200  1
  C  C23  1  0.27306600  0.97076200  0.25000200  1
  O  O24  1  0.29233300  0.04116800  0.25000600  1
  O  O25  1  0.29227600  0.54111400  0.25000600  1
  O  O26  1  0.70766700  0.45886600  0.75000100  1
  O  O27  1  0.70756100  0.95889800  0.75000100  1
  O  O28  1  0.94926200  0.05959100  0.74997700  1
  O  O29  1  0.94929400  0.55960300  0.74997200  1
  O  O30  1  0.05094400  0.44035500  0.25000100  1
  O  O31  1  0.05091300  0.94038100  0.24999600  1
  O  O32  1  0.52584900  0.07191500  0.75002300  1
  O  O33  1  0.52594900  0.57189300  0.75003100  1
  O  O34  1  0.47444200  0.42816000  0.24999900  1
  O  O35  1  0.47421000  0.92815400  0.25000500  1
  O  O36  1  0.37624400  0.22370100  0.24999900  1
  O  O37  1  0.37630700  0.72365600  0.24999800  1
  O  O38  1  0.62353400  0.27628200  0.74999700  1
  O  O39  1  0.62367800  0.77634200  0.74999000  1
  O  O40  1  0.15261600  0.20843700  0.74999700  1
  O  O41  1  0.15258900  0.70844500  0.74999500  1
  O  O42  1  0.84728900  0.29155200  0.25000200  1
  O  O43  1  0.84735500  0.79157800  0.25000300  1
  O  O44  1  0.77790800  0.15339800  0.05286900  1
  O  O45  1  0.77800000  0.65337600  0.05295700  1
  O  O46  1  0.77789800  0.15339500  0.44712500  1
  O  O47  1  0.77798200  0.65337200  0.44704000  1
  O  O48  1  0.22195100  0.34657600  0.55285500  1
  O  O49  1  0.22195100  0.84662500  0.55300100  1
  O  O50  1  0.22195100  0.34657500  0.94715000  1
  O  O51  1  0.22195700  0.84662400  0.94700400  1
