# generated using pymatgen
data_Ba2GeO4
_symmetry_space_group_name_H-M   'P 1'
_cell_length_a   7.70913900
_cell_length_b   6.04681100
_cell_length_c   12.19412431
_cell_angle_alpha   60.27707082
_cell_angle_beta   90.00000000
_cell_angle_gamma   90.00000000
_symmetry_Int_Tables_number   1
_chemical_formula_structural   Ba2GeO4
_chemical_formula_sum   'Ba8 Ge4 O16'
_cell_volume   493.65016967
_cell_formula_units_Z   4
loop_
 _symmetry_equiv_pos_site_id
 _symmetry_equiv_pos_as_xyz
  1  'x, y, z'
loop_
 _atom_site_type_symbol
 _atom_site_label
 _atom_site_symmetry_multiplicity
 _atom_site_fract_x
 _atom_site_fract_y
 _atom_site_fract_z
 _atom_site_occupancy
  Ba  Ba0  1  0.99362200  0.44329200  0.30317200  1
  Ba  Ba1  1  0.83860700  0.16849400  0.08607600  1
  Ba  Ba2  1  0.66139300  0.16849400  0.58607600  1
  Ba  Ba3  1  0.50637800  0.44329200  0.80317200  1
  Ba  Ba4  1  0.49362200  0.55670800  0.19682800  1
  Ba  Ba5  1  0.33860700  0.83150600  0.41392400  1
  Ba  Ba6  1  0.16139300  0.83150600  0.91392400  1
  Ba  Ba7  1  0.00637800  0.55670800  0.69682800  1
  Ge  Ge8  1  0.77690700  0.82945800  0.42156900  1
  Ge  Ge9  1  0.72309300  0.82945800  0.92156900  1
  Ge  Ge10  1  0.27690700  0.17054200  0.07843100  1
  Ge  Ge11  1  0.22309300  0.17054200  0.57843100  1
  O  O12  1  0.99373200  0.17139300  0.57695400  1
  O  O13  1  0.80912700  0.62784300  0.86646400  1
  O  O14  1  0.81121700  0.71215800  0.07696500  1
  O  O15  1  0.79870500  0.14552900  0.82394800  1
  O  O16  1  0.70129500  0.14552900  0.32394800  1
  O  O17  1  0.68878300  0.71215800  0.57696500  1
  O  O18  1  0.69087300  0.62784300  0.36646400  1
  O  O19  1  0.50626800  0.17139300  0.07695400  1
  O  O20  1  0.49373200  0.82860700  0.92304600  1
  O  O21  1  0.30912700  0.37215700  0.63353600  1
  O  O22  1  0.31121700  0.28784200  0.42303500  1
  O  O23  1  0.29870500  0.85447100  0.67605200  1
  O  O24  1  0.20129500  0.85447100  0.17605200  1
  O  O25  1  0.18878300  0.28784200  0.92303500  1
  O  O26  1  0.19087300  0.37215700  0.13353600  1
  O  O27  1  0.00626800  0.82860700  0.42304600  1
