# generated using pymatgen
data_Li3Mn4(FeO6)2
_symmetry_space_group_name_H-M   'P 1'
_cell_length_a   5.93080400
_cell_length_b   5.94560573
_cell_length_c   14.45116976
_cell_angle_alpha   91.05181835
_cell_angle_beta   90.08782002
_cell_angle_gamma   119.49308747
_symmetry_Int_Tables_number   1
_chemical_formula_structural   Li3Mn4(FeO6)2
_chemical_formula_sum   'Li6 Mn8 Fe4 O24'
_cell_volume   443.43899128
_cell_formula_units_Z   2
loop_
 _symmetry_equiv_pos_site_id
 _symmetry_equiv_pos_as_xyz
  1  'x, y, z'
loop_
 _atom_site_type_symbol
 _atom_site_label
 _atom_site_symmetry_multiplicity
 _atom_site_fract_x
 _atom_site_fract_y
 _atom_site_fract_z
 _atom_site_occupancy
  Li  Li0  1  0.33531200  0.67877300  0.70495900  1
  Li  Li1  1  0.01411700  0.00693000  0.62834100  1
  Li  Li2  1  0.33207600  0.65408500  0.96133200  1
  Li  Li3  1  0.66792400  0.34591500  0.03866800  1
  Li  Li4  1  0.66468800  0.32122700  0.29504100  1
  Li  Li5  1  0.98588300  0.99307000  0.37165900  1
  Mn  Mn6  1  0.67633800  0.34662900  0.66643400  1
  Mn  Mn7  1  0.33674000  0.16876500  0.83274900  1
  Mn  Mn8  1  0.83695900  0.66908900  0.83388500  1
  Mn  Mn9  1  0.16304100  0.33091100  0.16611500  1
  Mn  Mn10  1  0.66326000  0.83123500  0.16725100  1
  Mn  Mn11  1  0.32366200  0.65337100  0.33356600  1
  Mn  Mn12  1  0.00000000  0.00000000  0.00000000  1
  Mn  Mn13  1  0.00000000  0.50000000  0.50000000  1
  Fe  Fe14  1  0.16402500  0.83070200  0.16671700  1
  Fe  Fe15  1  0.83597500  0.16929800  0.83328300  1
  Fe  Fe16  1  0.50000000  0.00000000  0.50000000  1
  Fe  Fe17  1  0.50000000  0.50000000  0.50000000  1
  O  O18  1  0.12871200  0.82542700  0.91956700  1
  O  O19  1  0.15387500  0.28978300  0.91637300  1
  O  O20  1  0.52335400  0.05119300  0.74825000  1
  O  O21  1  0.54714600  0.51581300  0.74782000  1
  O  O22  1  0.66645700  0.34782400  0.90179700  1
  O  O23  1  0.29671800  0.15246000  0.08628500  1
  O  O24  1  0.97094800  0.49365900  0.75448300  1
  O  O25  1  0.00493700  0.98922100  0.76507600  1
  O  O26  1  0.33354300  0.65217600  0.09820300  1
  O  O27  1  0.70328200  0.84754000  0.91371500  1
  O  O28  1  0.02905200  0.50634100  0.24551700  1
  O  O29  1  0.45285400  0.48418700  0.25218000  1
  O  O30  1  0.47664600  0.94880700  0.25175000  1
  O  O31  1  0.16845900  0.79989900  0.41873100  1
  O  O32  1  0.17139100  0.36491900  0.41930800  1
  O  O33  1  0.87128800  0.17457300  0.08043300  1
  O  O34  1  0.84612500  0.71021700  0.08362700  1
  O  O35  1  0.62288700  0.80608000  0.41528800  1
  O  O36  1  0.32219800  0.66567000  0.57030600  1
  O  O37  1  0.99506300  0.01077900  0.23492400  1
  O  O38  1  0.67780200  0.33433000  0.42969400  1
  O  O39  1  0.37711300  0.19392000  0.58471200  1
  O  O40  1  0.82860900  0.63508100  0.58069200  1
  O  O41  1  0.83154100  0.20010100  0.58126900  1
