# generated using pymatgen
data_KMgP(H6O5)2
_symmetry_space_group_name_H-M   'P 1'
_cell_length_a   6.16127000
_cell_length_b   6.95455100
_cell_length_c   11.19083900
_cell_angle_alpha   90.00000000
_cell_angle_beta   90.00000000
_cell_angle_gamma   90.00000000
_symmetry_Int_Tables_number   1
_chemical_formula_structural   KMgP(H6O5)2
_chemical_formula_sum   'K2 Mg2 P2 H24 O20'
_cell_volume   479.51476566
_cell_formula_units_Z   2
loop_
 _symmetry_equiv_pos_site_id
 _symmetry_equiv_pos_as_xyz
  1  'x, y, z'
loop_
 _atom_site_type_symbol
 _atom_site_label
 _atom_site_symmetry_multiplicity
 _atom_site_fract_x
 _atom_site_fract_y
 _atom_site_fract_z
 _atom_site_occupancy
  K  K0  1  0.63327800  0.50000000  0.49349300  1
  K  K1  1  0.36672200  0.00000000  0.99349300  1
  Mg  Mg2  1  0.61406900  0.50000000  0.14665200  1
  Mg  Mg3  1  0.38593100  0.00000000  0.64665200  1
  P  P4  1  0.00505800  0.50000000  0.77184700  1
  P  P5  1  0.99494200  0.00000000  0.27184700  1
  H  H6  1  0.27574400  0.50000000  0.97251500  1
  H  H7  1  0.72425600  0.00000000  0.47251500  1
  H  H8  1  0.83120000  0.00000000  0.60342500  1
  H  H9  1  0.16880000  0.50000000  0.10342500  1
  H  H10  1  0.00272300  0.88263000  0.76891300  1
  H  H11  1  0.00272300  0.11737000  0.76891300  1
  H  H12  1  0.99727700  0.61737000  0.26891300  1
  H  H13  1  0.99727700  0.38263000  0.26891300  1
  H  H14  1  0.78811500  0.70060500  0.95509900  1
  H  H15  1  0.78811500  0.29939500  0.95509900  1
  H  H16  1  0.21188500  0.79939500  0.45509900  1
  H  H17  1  0.21188500  0.20060500  0.45509900  1
  H  H18  1  0.17863600  0.67806400  0.57551300  1
  H  H19  1  0.17863600  0.32193600  0.57551300  1
  H  H20  1  0.82136400  0.82193600  0.07551300  1
  H  H21  1  0.82136400  0.17806400  0.07551300  1
  H  H22  1  0.63715300  0.74470200  0.77853200  1
  H  H23  1  0.63715300  0.25529800  0.77853200  1
  H  H24  1  0.36284700  0.75529800  0.27853200  1
  H  H25  1  0.36284700  0.24470200  0.27853200  1
  H  H26  1  0.38781800  0.67566100  0.78832300  1
  H  H27  1  0.38781800  0.32433900  0.78832300  1
  H  H28  1  0.61218200  0.82433900  0.28832300  1
  H  H29  1  0.61218200  0.17566100  0.28832300  1
  O  O30  1  0.02460800  0.50000000  0.63362800  1
  O  O31  1  0.97539200  0.00000000  0.13362800  1
  O  O32  1  0.23769000  0.50000000  0.82931100  1
  O  O33  1  0.76231000  0.00000000  0.32931100  1
  O  O34  1  0.88396600  0.68344900  0.81559300  1
  O  O35  1  0.88396600  0.31655100  0.81559300  1
  O  O36  1  0.11603400  0.81655100  0.31559300  1
  O  O37  1  0.11603400  0.18344900  0.31559300  1
  O  O38  1  0.69141700  0.00000000  0.56100400  1
  O  O39  1  0.30858300  0.50000000  0.06100400  1
  O  O40  1  0.06631200  0.00000000  0.72904700  1
  O  O41  1  0.93368800  0.50000000  0.22904700  1
  O  O42  1  0.72272700  0.72561700  0.03593500  1
  O  O43  1  0.72272700  0.27438300  0.03593500  1
  O  O44  1  0.27727300  0.77438300  0.53593500  1
  O  O45  1  0.27727300  0.22561700  0.53593500  1
  O  O46  1  0.48304700  0.78876500  0.76673200  1
  O  O47  1  0.48304700  0.21123500  0.76673200  1
  O  O48  1  0.51695300  0.71123500  0.26673200  1
  O  O49  1  0.51695300  0.28876500  0.26673200  1
