# generated using pymatgen
data_VSO4
_symmetry_space_group_name_H-M   'P 1'
_cell_length_a   4.90537800
_cell_length_b   8.92380500
_cell_length_c   6.85221900
_cell_angle_alpha   89.99708179
_cell_angle_beta   89.99997160
_cell_angle_gamma   89.99990834
_symmetry_Int_Tables_number   1
_chemical_formula_structural   VSO4
_chemical_formula_sum   'V4 S4 O16'
_cell_volume   299.95339728
_cell_formula_units_Z   4
loop_
 _symmetry_equiv_pos_site_id
 _symmetry_equiv_pos_as_xyz
  1  'x, y, z'
loop_
 _atom_site_type_symbol
 _atom_site_label
 _atom_site_symmetry_multiplicity
 _atom_site_fract_x
 _atom_site_fract_y
 _atom_site_fract_z
 _atom_site_occupancy
  V  V0  1  0.99999000  0.00004900  0.50007600  1
  V  V1  1  0.50013700  0.50018300  0.50002700  1
  V  V2  1  0.99996200  0.00004800  0.99986800  1
  V  V3  1  0.49980800  0.49974300  0.99998200  1
  S  S4  1  0.48745600  0.17674300  0.24990900  1
  S  S5  1  0.98747400  0.32326800  0.75007600  1
  S  S6  1  0.01254500  0.67676000  0.24986300  1
  S  S7  1  0.51252600  0.82325200  0.75012600  1
  O  O8  1  0.77879400  0.12156600  0.24989000  1
  O  O9  1  0.27884100  0.37841100  0.75007000  1
  O  O10  1  0.72124400  0.62153900  0.24989000  1
  O  O11  1  0.22119800  0.87843500  0.75007500  1
  O  O12  1  0.98076700  0.15352400  0.75001100  1
  O  O13  1  0.48075900  0.34650400  0.25002600  1
  O  O14  1  0.51918600  0.65349500  0.75015000  1
  O  O15  1  0.01918400  0.84653200  0.24988900  1
  O  O16  1  0.35345800  0.12607000  0.07011200  1
  O  O17  1  0.35343800  0.12599400  0.42972800  1
  O  O18  1  0.85352100  0.37389800  0.92990900  1
  O  O19  1  0.85337300  0.37401100  0.57028500  1
  O  O20  1  0.14662300  0.62598800  0.07015600  1
  O  O21  1  0.14654500  0.62600300  0.42968900  1
  O  O22  1  0.64661000  0.87400300  0.57032700  1
  O  O23  1  0.64655800  0.87398000  0.92986600  1
