# generated using pymatgen
data_Na2TiCr(PO4)3
_symmetry_space_group_name_H-M   'P 1'
_cell_length_a   8.69352889
_cell_length_b   8.69352889
_cell_length_c   8.87236188
_cell_angle_alpha   60.72035500
_cell_angle_beta   60.72035500
_cell_angle_gamma   60.12520529
_symmetry_Int_Tables_number   1
_chemical_formula_structural   Na2TiCr(PO4)3
_chemical_formula_sum   'Na4 Ti2 Cr2 P6 O24'
_cell_volume   479.70944290
_cell_formula_units_Z   2
loop_
 _symmetry_equiv_pos_site_id
 _symmetry_equiv_pos_as_xyz
  1  'x, y, z'
loop_
 _atom_site_type_symbol
 _atom_site_label
 _atom_site_symmetry_multiplicity
 _atom_site_fract_x
 _atom_site_fract_y
 _atom_site_fract_z
 _atom_site_occupancy
  Na  Na0  1  0.00500600  0.50001800  0.75252300  1
  Na  Na1  1  0.49998200  0.99499400  0.24747700  1
  Na  Na2  1  0.11580200  0.25116900  0.49969900  1
  Na  Na3  1  0.74883100  0.88419800  0.50030100  1
  Ti  Ti4  1  0.85667600  0.35872300  0.17876300  1
  Ti  Ti5  1  0.64127700  0.14332400  0.82123700  1
  Cr  Cr6  1  0.35228900  0.84962600  0.69197500  1
  Cr  Cr7  1  0.15037400  0.64771100  0.30802500  1
  P  P8  1  0.53716000  0.74988600  0.99932700  1
  P  P9  1  0.25011400  0.46284000  0.00067300  1
  P  P10  1  0.96261800  0.03738200  0.00000000  1
  P  P11  1  0.04100300  0.95899700  0.50000000  1
  P  P12  1  0.74565800  0.53986700  0.50016900  1
  P  P13  1  0.46013300  0.25434200  0.49983100  1
  O  O14  1  0.49567900  0.21687200  0.67098500  1
  O  O15  1  0.86623400  0.99360300  0.66945700  1
  O  O16  1  0.72015600  0.57765200  0.01788800  1
  O  O17  1  0.72052500  0.36496200  0.66943100  1
  O  O18  1  0.37036900  0.72205500  0.17065100  1
  O  O19  1  0.56646000  0.92211600  0.98141500  1
  O  O20  1  0.07788400  0.43354000  0.01858500  1
  O  O21  1  0.42234800  0.27984400  0.98211200  1
  O  O22  1  0.77982000  0.06568700  0.98195400  1
  O  O23  1  0.00639700  0.13376600  0.33054300  1
  O  O24  1  0.05777000  0.78053000  0.48733100  1
  O  O25  1  0.78312800  0.50432100  0.32901500  1
  O  O26  1  0.21952900  0.48087000  0.17786700  1
  O  O27  1  0.93431300  0.22018000  0.01804600  1
  O  O28  1  0.98340400  0.87150100  0.17522000  1
  O  O29  1  0.21947000  0.94223000  0.51266900  1
  O  O30  1  0.57976300  0.72349300  0.51203900  1
  O  O31  1  0.91936000  0.56215000  0.48784200  1
  O  O32  1  0.43785000  0.08064000  0.51215800  1
  O  O33  1  0.63503800  0.27947500  0.33056900  1
  O  O34  1  0.27794500  0.62963100  0.82934900  1
  O  O35  1  0.27650700  0.42023700  0.48796100  1
  O  O36  1  0.12849900  0.01659600  0.82478000  1
  O  O37  1  0.51913000  0.78047100  0.82213300  1
