# generated using pymatgen
data_P2H10S4N2O
_symmetry_space_group_name_H-M   'P 1'
_cell_length_a   8.18261000
_cell_length_b   8.78566900
_cell_length_c   14.46450900
_cell_angle_alpha   90.00000000
_cell_angle_beta   90.00000000
_cell_angle_gamma   90.00000000
_symmetry_Int_Tables_number   1
_chemical_formula_structural   P2H10S4N2O
_chemical_formula_sum   'P8 H40 S16 N8 O4'
_cell_volume   1039.84925628
_cell_formula_units_Z   4
loop_
 _symmetry_equiv_pos_site_id
 _symmetry_equiv_pos_as_xyz
  1  'x, y, z'
loop_
 _atom_site_type_symbol
 _atom_site_label
 _atom_site_symmetry_multiplicity
 _atom_site_fract_x
 _atom_site_fract_y
 _atom_site_fract_z
 _atom_site_occupancy
  P  P0  1  0.42164100  0.86702700  0.43307800  1
  P  P1  1  0.57835900  0.86702700  0.56692200  1
  P  P2  1  0.92164100  0.13297300  0.06692200  1
  P  P3  1  0.07835900  0.13297300  0.93307800  1
  P  P4  1  0.57835900  0.13297300  0.56692200  1
  P  P5  1  0.42164100  0.13297300  0.43307800  1
  P  P6  1  0.07835900  0.86702700  0.93307800  1
  P  P7  1  0.92164100  0.86702700  0.06692200  1
  H  H8  1  0.33735000  0.41200600  0.09313700  1
  H  H9  1  0.66265000  0.41200600  0.90686300  1
  H  H10  1  0.83735000  0.58799400  0.40686300  1
  H  H11  1  0.16265000  0.58799400  0.59313700  1
  H  H12  1  0.66265000  0.58799400  0.90686300  1
  H  H13  1  0.33735000  0.58799400  0.09313700  1
  H  H14  1  0.16265000  0.41200600  0.59313700  1
  H  H15  1  0.83735000  0.41200600  0.40686300  1
  H  H16  1  0.27499700  0.40376300  0.33917600  1
  H  H17  1  0.72500300  0.40376300  0.66082400  1
  H  H18  1  0.77499700  0.59623700  0.16082400  1
  H  H19  1  0.22500300  0.59623700  0.83917600  1
  H  H20  1  0.72500300  0.59623700  0.66082400  1
  H  H21  1  0.27499700  0.59623700  0.33917600  1
  H  H22  1  0.22500300  0.40376300  0.83917600  1
  H  H23  1  0.77499700  0.40376300  0.16082400  1
  H  H24  1  0.23761600  0.50000000  0.24018400  1
  H  H25  1  0.76238400  0.50000000  0.75981600  1
  H  H26  1  0.73761600  0.50000000  0.25981600  1
  H  H27  1  0.26238400  0.50000000  0.74018400  1
  H  H28  1  0.09772000  0.50000000  0.33105400  1
  H  H29  1  0.90228000  0.50000000  0.66894600  1
  H  H30  1  0.59772000  0.50000000  0.16894600  1
  H  H31  1  0.40228000  0.50000000  0.83105400  1
  H  H32  1  0.97896200  0.90505000  0.35656900  1
  H  H33  1  0.02103800  0.90505000  0.64343100  1
  H  H34  1  0.47896200  0.09495000  0.14343100  1
  H  H35  1  0.52103800  0.09495000  0.85656900  1
  H  H36  1  0.02103800  0.09495000  0.64343100  1
  H  H37  1  0.97896200  0.09495000  0.35656900  1
  H  H38  1  0.52103800  0.90505000  0.85656900  1
  H  H39  1  0.47896200  0.90505000  0.14343100  1
  H  H40  1  0.82597800  0.00000000  0.40820000  1
  H  H41  1  0.17402200  0.00000000  0.59180000  1
  H  H42  1  0.32597800  0.00000000  0.09180000  1
  H  H43  1  0.67402200  0.00000000  0.90820000  1
  H  H44  1  0.84170300  0.00000000  0.29115400  1
  H  H45  1  0.15829700  0.00000000  0.70884600  1
  H  H46  1  0.34170300  0.00000000  0.20884600  1
  H  H47  1  0.65829700  0.00000000  0.79115400  1
  S  S48  1  0.54412900  0.78367900  0.32607100  1
  S  S49  1  0.45587100  0.78367900  0.67392900  1
  S  S50  1  0.04412900  0.21632100  0.17392900  1
  S  S51  1  0.95587100  0.21632100  0.82607100  1
  S  S52  1  0.45587100  0.21632100  0.67392900  1
  S  S53  1  0.54412900  0.21632100  0.32607100  1
  S  S54  1  0.95587100  0.78367900  0.82607100  1
  S  S55  1  0.04412900  0.78367900  0.17392900  1
  S  S56  1  0.19735200  0.78744400  0.46090600  1
  S  S57  1  0.80264800  0.78744400  0.53909400  1
  S  S58  1  0.69735200  0.21255600  0.03909400  1
  S  S59  1  0.30264800  0.21255600  0.96090600  1
  S  S60  1  0.80264800  0.21255600  0.53909400  1
  S  S61  1  0.19735200  0.21255600  0.46090600  1
  S  S62  1  0.30264800  0.78744400  0.96090600  1
  S  S63  1  0.69735200  0.78744400  0.03909400  1
  N  N64  1  0.21996900  0.50000000  0.31160400  1
  N  N65  1  0.78003100  0.50000000  0.68839600  1
  N  N66  1  0.71996900  0.50000000  0.18839600  1
  N  N67  1  0.28003100  0.50000000  0.81160400  1
  N  N68  1  0.90438600  0.00000000  0.35251100  1
  N  N69  1  0.09561400  0.00000000  0.64748900  1
  N  N70  1  0.40438600  0.00000000  0.14748900  1
  N  N71  1  0.59561400  0.00000000  0.85251100  1
  O  O72  1  0.36884700  0.50000000  0.13123900  1
  O  O73  1  0.63115300  0.50000000  0.86876100  1
  O  O74  1  0.86884700  0.50000000  0.36876100  1
  O  O75  1  0.13115300  0.50000000  0.63123900  1
