# generated using pymatgen
data_Sr20Fe9Co(MoO6)10
_symmetry_space_group_name_H-M   'P 1'
_cell_length_a   5.64195380
_cell_length_b   56.31137430
_cell_length_c   11.33611505
_cell_angle_alpha   119.92377421
_cell_angle_beta   119.78063078
_cell_angle_gamma   90.05235444
_symmetry_Int_Tables_number   1
_chemical_formula_structural   Sr20Fe9Co(MoO6)10
_chemical_formula_sum   'Sr40 Fe18 Co2 Mo20 O120'
_cell_volume   2556.86480677
_cell_formula_units_Z   2
loop_
 _symmetry_equiv_pos_site_id
 _symmetry_equiv_pos_as_xyz
  1  'x, y, z'
loop_
 _atom_site_type_symbol
 _atom_site_label
 _atom_site_symmetry_multiplicity
 _atom_site_fract_x
 _atom_site_fract_y
 _atom_site_fract_z
 _atom_site_occupancy
  Sr  Sr0  1  0.25073200  0.07507300  0.75038800  1
  Sr  Sr1  1  0.25076800  0.27500900  0.75071600  1
  Sr  Sr2  1  0.24976700  0.17483500  0.74940500  1
  Sr  Sr3  1  0.24993700  0.37501900  0.74946900  1
  Sr  Sr4  1  0.25157000  0.47510900  0.75049300  1
  Sr  Sr5  1  0.25194300  0.57480000  0.75115500  1
  Sr  Sr6  1  0.24945500  0.67463400  0.74887900  1
  Sr  Sr7  1  0.25705200  0.77544100  0.75631400  1
  Sr  Sr8  1  0.25684100  0.87604000  0.75644900  1
  Sr  Sr9  1  0.25055500  0.97501700  0.75035100  1
  Sr  Sr10  1  0.25035700  0.07480600  0.24884000  1
  Sr  Sr11  1  0.25078700  0.17474500  0.25055900  1
  Sr  Sr12  1  0.25071900  0.27496100  0.24924100  1
  Sr  Sr13  1  0.25071900  0.37497100  0.24875000  1
  Sr  Sr14  1  0.25045400  0.47497100  0.25028600  1
  Sr  Sr15  1  0.25020700  0.57510200  0.24921500  1
  Sr  Sr16  1  0.24456700  0.67356000  0.24543800  1
  Sr  Sr17  1  0.24481900  0.77439600  0.24352200  1
  Sr  Sr18  1  0.24685300  0.87558500  0.24736700  1
  Sr  Sr19  1  0.24874000  0.97477800  0.24805000  1
  Sr  Sr20  1  0.74979300  0.02489800  0.75078500  1
  Sr  Sr21  1  0.74954600  0.12502900  0.74971400  1
  Sr  Sr22  1  0.74928100  0.22502900  0.75125000  1
  Sr  Sr23  1  0.74928100  0.32503900  0.75075900  1
  Sr  Sr24  1  0.74921300  0.42525500  0.74944100  1
  Sr  Sr25  1  0.74964300  0.52519400  0.75116000  1
  Sr  Sr26  1  0.75126000  0.62522200  0.75195000  1
  Sr  Sr27  1  0.75314700  0.72441500  0.75263300  1
  Sr  Sr28  1  0.75518100  0.82560400  0.75647800  1
  Sr  Sr29  1  0.75543300  0.92644000  0.75456200  1
  Sr  Sr30  1  0.74805700  0.02520000  0.24884500  1
  Sr  Sr31  1  0.74843000  0.12489100  0.24950700  1
  Sr  Sr32  1  0.75006300  0.22498100  0.25053100  1
  Sr  Sr33  1  0.74923200  0.32499100  0.24928400  1
  Sr  Sr34  1  0.75023300  0.42516500  0.25059500  1
  Sr  Sr35  1  0.74926800  0.52492700  0.24961200  1
  Sr  Sr36  1  0.74944500  0.62498300  0.24964900  1
  Sr  Sr37  1  0.74315900  0.72396000  0.24355100  1
  Sr  Sr38  1  0.74294800  0.82455900  0.24368600  1
  Sr  Sr39  1  0.75054500  0.92536600  0.25112100  1
  Fe  Fe40  1  0.00053900  0.00020300  0.50264800  1
  Fe  Fe41  1  0.00186900  0.10007800  0.50113000  1
  Fe  Fe42  1  0.99954400  0.20010800  0.49873900  1
  Fe  Fe43  1  0.00000000  0.30000000  0.50000000  1
  Fe  Fe44  1  0.00045600  0.39989200  0.50126100  1
  Fe  Fe45  1  0.99813100  0.49992200  0.49887000  1
  Fe  Fe46  1  0.99946100  0.59979700  0.49735200  1
  Fe  Fe47  1  0.00000000  0.80000000  0.50000000  1
  Fe  Fe48  1  0.00423900  0.99991000  0.00138500  1
  Fe  Fe49  1  0.99892000  0.09967100  0.99947400  1
  Fe  Fe50  1  0.99854700  0.20012500  0.99989800  1
  Fe  Fe51  1  0.00000000  0.30000000  0.00000000  1
  Fe  Fe52  1  0.00145300  0.39987500  0.00010200  1
  Fe  Fe53  1  0.99576100  0.60009000  0.99861500  1
  Fe  Fe54  1  0.00000000  0.80000000  0.00000000  1
  Fe  Fe55  1  0.00526200  0.90077500  0.00518700  1
  Fe  Fe56  1  0.00108000  0.50032900  0.00052600  1
  Fe  Fe57  1  0.99473800  0.69922500  0.99481300  1
  Co  Co58  1  0.99872600  0.69947700  0.49862300  1
  Co  Co59  1  0.00127400  0.90052300  0.50137700  1
  Mo  Mo60  1  0.50005000  0.04989000  0.49980200  1
  Mo  Mo61  1  0.49886700  0.14987100  0.49885500  1
  Mo  Mo62  1  0.49988000  0.25000800  0.49986300  1
  Mo  Mo63  1  0.50012000  0.34999200  0.50013700  1
  Mo  Mo64  1  0.50113300  0.45012900  0.50114500  1
  Mo  Mo65  1  0.49995000  0.55011000  0.50019800  1
  Mo  Mo66  1  0.49861700  0.64990600  0.49864500  1
  Mo  Mo67  1  0.49964500  0.74943200  0.49875900  1
  Mo  Mo68  1  0.50138300  0.95009400  0.50135500  1
  Mo  Mo69  1  0.50035500  0.85056800  0.50124100  1
  Mo  Mo70  1  0.50076900  0.04999500  0.00007100  1
  Mo  Mo71  1  0.50002400  0.14998200  0.99987800  1
  Mo  Mo72  1  0.49919200  0.24988700  0.99952800  1
  Mo  Mo73  1  0.50080800  0.35011300  0.00047200  1
  Mo  Mo74  1  0.49997600  0.45001800  0.00012200  1
  Mo  Mo75  1  0.49923100  0.55000500  0.99992900  1
  Mo  Mo76  1  0.49892500  0.64977300  0.99944100  1
  Mo  Mo77  1  0.49854100  0.74950800  0.99818300  1
  Mo  Mo78  1  0.50107500  0.95022700  0.00055900  1
  Mo  Mo79  1  0.50145900  0.85049200  0.00181700  1
  O  O80  1  0.24775000  0.12487900  0.74918600  1
  O  O81  1  0.25005200  0.02530400  0.75048100  1
  O  O82  1  0.24893300  0.22550700  0.75309300  1
  O  O83  1  0.24973700  0.32544700  0.75322800  1
  O  O84  1  0.24909900  0.42498600  0.74931900  1
  O  O85  1  0.24744400  0.52527600  0.75009500  1
  O  O86  1  0.25578500  0.62607500  0.75778700  1
  O  O87  1  0.26016900  0.72648900  0.76132400  1
  O  O88  1  0.25376900  0.82512500  0.75337100  1
  O  O89  1  0.25894800  0.92569400  0.75958700  1
  O  O90  1  0.21422500  0.07148800  0.49999500  1
  O  O91  1  0.21306600  0.17143000  0.50090500  1
  O  O92  1  0.21360500  0.27135000  0.49945400  1
  O  O93  1  0.21361700  0.37138100  0.49804000  1
  O  O94  1  0.21408700  0.47171100  0.50091800  1
  O  O95  1  0.21461300  0.57174700  0.50139100  1
  O  O96  1  0.21798900  0.67068700  0.50076700  1
  O  O97  1  0.22135000  0.77114700  0.50100800  1
  O  O98  1  0.22428600  0.87026500  0.49953400  1
  O  O99  1  0.21549300  0.97157100  0.49937200  1
  O  O100  1  0.28953200  0.02232400  0.49957600  1
  O  O101  1  0.29138100  0.12234700  0.50002300  1
  O  O102  1  0.29367300  0.22232500  0.50412600  1
  O  O103  1  0.29138000  0.32232700  0.50321600  1
  O  O104  1  0.29042100  0.42259100  0.50016300  1
  O  O105  1  0.29317200  0.52279200  0.50244000  1
  O  O106  1  0.28890400  0.62221200  0.50206700  1
  O  O107  1  0.29547300  0.72266900  0.50066400  1
  O  O108  1  0.29068700  0.82188400  0.49988500  1
  O  O109  1  0.28789700  0.92246800  0.49948300  1
  O  O110  1  0.24896200  0.02512700  0.25026900  1
  O  O111  1  0.24830200  0.12497300  0.24862700  1
  O  O112  1  0.25484400  0.22543700  0.25350200  1
  O  O113  1  0.25316300  0.32527400  0.25279700  1
  O  O114  1  0.24849000  0.42507300  0.24956600  1
  O  O115  1  0.25079300  0.52514000  0.25044300  1
  O  O116  1  0.25094900  0.62483900  0.24940700  1
  O  O117  1  0.25830500  0.72612800  0.25934100  1
  O  O118  1  0.25752300  0.82557700  0.25783100  1
  O  O119  1  0.24897000  0.92478700  0.24985600  1
  O  O120  1  0.74920700  0.07486000  0.74955700  1
  O  O121  1  0.75151000  0.17492700  0.75043400  1
  O  O122  1  0.74683700  0.27472600  0.74720300  1
  O  O123  1  0.74515600  0.37456300  0.74649800  1
  O  O124  1  0.75169800  0.47502700  0.75137300  1
  O  O125  1  0.75103800  0.57487300  0.74973100  1
  O  O126  1  0.75103000  0.67521300  0.75014400  1
  O  O127  1  0.74247700  0.77442300  0.74216900  1
  O  O128  1  0.74169500  0.87387200  0.74065900  1
  O  O129  1  0.74905100  0.97516100  0.75059300  1
  O  O130  1  0.70682800  0.07720800  0.49756000  1
  O  O131  1  0.70957900  0.17740900  0.49983700  1
  O  O132  1  0.70862000  0.27767300  0.49678400  1
  O  O133  1  0.70632700  0.37767500  0.49587400  1
  O  O134  1  0.70861900  0.47765300  0.49997700  1
  O  O135  1  0.71046800  0.57767600  0.50042400  1
  O  O136  1  0.71210300  0.67753200  0.50051700  1
  O  O137  1  0.70452700  0.87733100  0.49933600  1
  O  O138  1  0.70931300  0.77811600  0.50011500  1
  O  O139  1  0.71109600  0.97778800  0.49793300  1
  O  O140  1  0.22138400  0.07061800  0.99800700  1
  O  O141  1  0.22515600  0.17080900  0.00135300  1
  O  O142  1  0.21829600  0.27084700  0.99825200  1
  O  O143  1  0.21777300  0.37082200  0.99766800  1
  O  O144  1  0.22497500  0.47064200  0.00098800  1
  O  O145  1  0.22124500  0.57050600  0.99852900  1
  O  O146  1  0.21666600  0.67175000  0.00384300  1
  O  O147  1  0.21311100  0.77161000  0.00059500  1
  O  O148  1  0.20863800  0.87072300  0.99574100  1
  O  O149  1  0.21621500  0.97126500  0.00102700  1
  O  O150  1  0.78538700  0.02825300  0.49860900  1
  O  O151  1  0.78591300  0.12828900  0.49908200  1
  O  O152  1  0.78638300  0.22861900  0.50196000  1
  O  O153  1  0.78639500  0.32865000  0.50054600  1
  O  O154  1  0.78577500  0.52851200  0.50000500  1
  O  O155  1  0.78693400  0.42857000  0.49909500  1
  O  O156  1  0.78450700  0.62842900  0.50062800  1
  O  O157  1  0.77571400  0.72973500  0.50046600  1
  O  O158  1  0.77865000  0.82885300  0.49899200  1
  O  O159  1  0.78201100  0.92931300  0.49923300  1
  O  O160  1  0.28387200  0.02163900  0.99967700  1
  O  O161  1  0.28206700  0.12156700  0.99997500  1
  O  O162  1  0.28615600  0.22151700  0.00178700  1
  O  O163  1  0.28444500  0.32170500  0.00137400  1
  O  O164  1  0.28107900  0.42153300  0.99950900  1
  O  O165  1  0.28502200  0.52132900  0.00038400  1
  O  O166  1  0.28638700  0.62125700  0.99974600  1
  O  O167  1  0.29080400  0.72177900  0.00432700  1
  O  O168  1  0.28358800  0.82108100  0.99911600  1
  O  O169  1  0.28548900  0.92106000  0.99875200  1
  O  O170  1  0.75255600  0.07472400  0.24990500  1
  O  O171  1  0.75090100  0.17501400  0.25068100  1
  O  O172  1  0.75026300  0.27455400  0.24677200  1
  O  O173  1  0.75106700  0.37449300  0.24690700  1
  O  O174  1  0.75225000  0.47512100  0.25081400  1
  O  O175  1  0.74994800  0.57469600  0.24951900  1
  O  O176  1  0.74105200  0.67430600  0.24041300  1
  O  O177  1  0.73983100  0.87351100  0.23867600  1
  O  O178  1  0.74623100  0.77487500  0.24662900  1
  O  O179  1  0.74421500  0.97392500  0.24221300  1
  O  O180  1  0.71497800  0.07867100  0.99961600  1
  O  O181  1  0.71555500  0.27829500  0.99862600  1
  O  O182  1  0.71892100  0.17846700  0.00049100  1
  O  O183  1  0.71384400  0.37848300  0.99821300  1
  O  O184  1  0.71793300  0.47843300  0.00002500  1
  O  O185  1  0.71612800  0.57836100  0.00032300  1
  O  O186  1  0.71641200  0.77891900  0.00088400  1
  O  O187  1  0.71451100  0.67894000  0.00124800  1
  O  O188  1  0.70919600  0.87822100  0.99567300  1
  O  O189  1  0.71361300  0.97874300  0.00025400  1
  O  O190  1  0.77875500  0.02949400  0.00147100  1
  O  O191  1  0.77502500  0.12935800  0.99901200  1
  O  O192  1  0.78222700  0.22917800  0.00233200  1
  O  O193  1  0.78170400  0.32915300  0.00174800  1
  O  O194  1  0.77484400  0.42919200  0.99864700  1
  O  O195  1  0.77861600  0.52938200  0.00199300  1
  O  O196  1  0.78378500  0.62873500  0.99897300  1
  O  O197  1  0.79136200  0.72927700  0.00425900  1
  O  O198  1  0.78688900  0.82839000  0.99940500  1
  O  O199  1  0.78333400  0.92825000  0.99615700  1
