# generated using pymatgen
data_V4(OF3)3
_symmetry_space_group_name_H-M   'P 1'
_cell_length_a   5.24546100
_cell_length_b   5.38658256
_cell_length_c   17.39311356
_cell_angle_alpha   83.23891886
_cell_angle_beta   81.47786944
_cell_angle_gamma   61.23931949
_symmetry_Int_Tables_number   1
_chemical_formula_structural   V4(OF3)3
_chemical_formula_sum   'V8 O6 F18'
_cell_volume   425.45015490
_cell_formula_units_Z   2
loop_
 _symmetry_equiv_pos_site_id
 _symmetry_equiv_pos_as_xyz
  1  'x, y, z'
loop_
 _atom_site_type_symbol
 _atom_site_label
 _atom_site_symmetry_multiplicity
 _atom_site_fract_x
 _atom_site_fract_y
 _atom_site_fract_z
 _atom_site_occupancy
  V  V0  1  0.62289300  0.62771700  0.12515900  1
  V  V1  1  0.15185700  0.10229000  0.63053700  1
  V  V2  1  0.25210800  0.22021200  0.24688000  1
  V  V3  1  0.73496100  0.75261800  0.75084100  1
  V  V4  1  0.89637900  0.88880800  0.37256700  1
  V  V5  1  0.38234900  0.40269200  0.87330100  1
  V  V6  1  0.99312000  0.03400900  0.00406400  1
  V  V7  1  0.50568000  0.52139500  0.50448500  1
  O  O8  1  0.89960600  0.30202600  0.06016100  1
  O  O9  1  0.40164500  0.79891600  0.55968800  1
  O  O10  1  0.34869200  0.95271300  0.18954300  1
  O  O11  1  0.07643200  0.07053300  0.33528600  1
  O  O12  1  0.56067100  0.58323700  0.83449800  1
  O  O13  1  0.37037500  0.95929600  0.70317900  1
  F  F14  1  0.84409500  0.83063800  0.08495500  1
  F  F15  1  0.63045400  0.03977300  0.29063300  1
  F  F16  1  0.33793600  0.33383800  0.58503800  1
  F  F17  1  0.12146300  0.53482000  0.78925400  1
  F  F18  1  0.38635500  0.79073100  0.03677200  1
  F  F19  1  0.40426400  0.42362800  0.16534900  1
  F  F20  1  0.91688300  0.91184900  0.66310000  1
  F  F21  1  0.12429300  0.69527900  0.46077400  1
  F  F22  1  0.15085400  0.55081500  0.31233200  1
  F  F23  1  0.84158400  0.43141400  0.68588400  1
  F  F24  1  0.89315500  0.28105000  0.54050800  1
  F  F25  1  0.60930100  0.21094600  0.96161200  1
  F  F26  1  0.67335600  0.66496400  0.41326300  1
  F  F27  1  0.86021300  0.46373700  0.21277800  1
  F  F28  1  0.65517800  0.06265900  0.81439000  1
  F  F29  1  0.08657200  0.69855900  0.93985400  1
  F  F30  1  0.60112600  0.18653200  0.44107000  1
  F  F31  1  0.16614800  0.17230900  0.91224500  1
