# generated using pymatgen
data_Ca2FeP2(H2O3)4
_symmetry_space_group_name_H-M   'P 1'
_cell_length_a   8.16650863
_cell_length_b   10.02728747
_cell_length_c   12.49944462
_cell_angle_alpha   86.88820862
_cell_angle_beta   106.56467063
_cell_angle_gamma   98.33388273
_symmetry_Int_Tables_number   1
_chemical_formula_structural   Ca2FeP2(H2O3)4
_chemical_formula_sum   'Ca8 Fe4 P8 H32 O48'
_cell_volume   970.62410986
_cell_formula_units_Z   4
loop_
 _symmetry_equiv_pos_site_id
 _symmetry_equiv_pos_as_xyz
  1  'x, y, z'
loop_
 _atom_site_type_symbol
 _atom_site_label
 _atom_site_symmetry_multiplicity
 _atom_site_fract_x
 _atom_site_fract_y
 _atom_site_fract_z
 _atom_site_occupancy
  Ca  Ca0  1  0.54367000  0.16358900  0.16991400  1
  Ca  Ca1  1  0.04361500  0.66355200  0.16994400  1
  Ca  Ca2  1  0.79363600  0.91356100  0.66989300  1
  Ca  Ca3  1  0.29365300  0.41352500  0.66982800  1
  Ca  Ca4  1  0.70631800  0.58644700  0.33011200  1
  Ca  Ca5  1  0.20630900  0.08642000  0.33008500  1
  Ca  Ca6  1  0.95638700  0.33642900  0.83010700  1
  Ca  Ca7  1  0.45638700  0.83649400  0.83015800  1
  Fe  Fe8  1  0.49993600  0.50009500  0.99971500  1
  Fe  Fe9  1  0.25008500  0.74992300  0.50015400  1
  Fe  Fe10  1  0.99996500  0.99989100  0.99979000  1
  Fe  Fe11  1  0.75010500  0.24999800  0.50018400  1
  P  P12  1  0.85296600  0.91949200  0.21629000  1
  P  P13  1  0.35304900  0.41955300  0.21624800  1
  P  P14  1  0.10302800  0.66950200  0.71633100  1
  P  P15  1  0.60303400  0.16946900  0.71630900  1
  P  P16  1  0.39687300  0.83047000  0.28376000  1
  P  P17  1  0.89698400  0.33052700  0.28370900  1
  P  P18  1  0.64706300  0.58047800  0.78365700  1
  P  P19  1  0.14698600  0.08053100  0.78370600  1
  H  H20  1  0.69149300  0.98707600  0.02669400  1
  H  H21  1  0.19148100  0.48703400  0.02671900  1
  H  H22  1  0.94153200  0.73704500  0.52666200  1
  H  H23  1  0.44149000  0.23707300  0.52667300  1
  H  H24  1  0.55846700  0.76298200  0.47329900  1
  H  H25  1  0.05850500  0.26290800  0.47331900  1
  H  H26  1  0.80851600  0.51295000  0.97330100  1
  H  H27  1  0.30856300  0.01294000  0.97334100  1
  H  H28  1  0.30661400  0.92851400  0.08921100  1
  H  H29  1  0.80646500  0.42851400  0.08917000  1
  H  H30  1  0.55664500  0.67852700  0.58917600  1
  H  H31  1  0.05652100  0.17851200  0.58920100  1
  H  H32  1  0.94355700  0.82144400  0.41079700  1
  H  H33  1  0.44342900  0.32148900  0.41080100  1
  H  H34  1  0.19336000  0.57151100  0.91083900  1
  H  H35  1  0.69348500  0.07147100  0.91081600  1
  H  H36  1  0.43764500  0.74276200  0.07223000  1
  H  H37  1  0.93767900  0.24274900  0.07219700  1
  H  H38  1  0.68769300  0.49277700  0.57220700  1
  H  H39  1  0.18762700  0.99274600  0.57220000  1
  H  H40  1  0.81230400  0.00723400  0.42778400  1
  H  H41  1  0.31234900  0.50720600  0.42778700  1
  H  H42  1  0.06230900  0.75719700  0.92780000  1
  H  H43  1  0.56234400  0.25728800  0.92778700  1
  H  H44  1  0.63131200  0.74242300  0.08251900  1
  H  H45  1  0.13136300  0.24244400  0.08247200  1
  H  H46  1  0.88136900  0.49245400  0.58246600  1
  H  H47  1  0.38129500  0.99245000  0.58245400  1
  H  H48  1  0.61862500  0.00756300  0.41751300  1
  H  H49  1  0.11869800  0.50756700  0.41755400  1
  H  H50  1  0.86862800  0.75751800  0.91752100  1
  H  H51  1  0.36867600  0.25761700  0.91750500  1
  O  O52  1  0.29038800  0.01950300  0.04989500  1
  O  O53  1  0.79025100  0.51950400  0.04983200  1
  O  O54  1  0.54041500  0.76953200  0.54992000  1
  O  O55  1  0.04031600  0.26949900  0.54989300  1
  O  O56  1  0.95974800  0.73045200  0.45012100  1
  O  O57  1  0.45965800  0.23050000  0.45011500  1
  O  O58  1  0.20959800  0.48051900  0.95011200  1
  O  O59  1  0.70968800  0.98048400  0.95012000  1
  O  O60  1  0.51506800  0.72298900  0.02685500  1
  O  O61  1  0.01511900  0.22292300  0.02684900  1
  O  O62  1  0.76512500  0.47294400  0.52685700  1
  O  O63  1  0.26505600  0.97291200  0.52686000  1
  O  O64  1  0.73487000  0.02708600  0.47313600  1
  O  O65  1  0.23496000  0.52700400  0.47318700  1
  O  O66  1  0.98487000  0.77703900  0.97313100  1
  O  O67  1  0.48491200  0.27712400  0.97312000  1
  O  O68  1  0.69426200  0.98793900  0.15500500  1
  O  O69  1  0.19418500  0.48785400  0.15504900  1
  O  O70  1  0.94432900  0.73792000  0.65502500  1
  O  O71  1  0.44433700  0.23789700  0.65505500  1
  O  O72  1  0.55566000  0.76210700  0.34497500  1
  O  O73  1  0.05569900  0.26209500  0.34498600  1
  O  O74  1  0.80581800  0.51211800  0.84495400  1
  O  O75  1  0.30568800  0.01210700  0.84494500  1
  O  O76  1  0.00794500  0.96971700  0.16594200  1
  O  O77  1  0.50791500  0.46994300  0.16582300  1
  O  O78  1  0.25814100  0.71976800  0.66609700  1
  O  O79  1  0.75797400  0.21973500  0.66594800  1
  O  O80  1  0.24196400  0.78017800  0.33419500  1
  O  O81  1  0.74199200  0.28027600  0.33405300  1
  O  O82  1  0.49199900  0.53012200  0.83391400  1
  O  O83  1  0.99205200  0.03026700  0.83406500  1
  O  O84  1  0.32677300  0.79298400  0.15805800  1
  O  O85  1  0.82679700  0.29301600  0.15800000  1
  O  O86  1  0.57689500  0.54296100  0.65797100  1
  O  O87  1  0.07679300  0.04300600  0.65804700  1
  O  O88  1  0.92316000  0.95700100  0.34199600  1
  O  O89  1  0.42312300  0.45701800  0.34196100  1
  O  O90  1  0.17319600  0.70703700  0.84202200  1
  O  O91  1  0.67319900  0.20698500  0.84197900  1
  O  O92  1  0.43919600  0.98678800  0.29917400  1
  O  O93  1  0.93925500  0.48687400  0.29916900  1
  O  O94  1  0.68922800  0.73680400  0.79914500  1
  O  O95  1  0.18923300  0.23684300  0.79916200  1
  O  O96  1  0.81068900  0.76313700  0.20084400  1
  O  O97  1  0.31081300  0.26322600  0.20083600  1
  O  O98  1  0.06077100  0.51317800  0.70084700  1
  O  O99  1  0.56078400  0.01315500  0.70084700  1
