# generated using pymatgen
data_Er6Te2Ru
_symmetry_space_group_name_H-M   'P 1'
_cell_length_a   8.27174002
_cell_length_b   8.27174002
_cell_length_c   3.99815600
_cell_angle_alpha   90.00000000
_cell_angle_beta   90.00000000
_cell_angle_gamma   120.00000018
_symmetry_Int_Tables_number   1
_chemical_formula_structural   Er6Te2Ru
_chemical_formula_sum   'Er6 Te2 Ru1'
_cell_volume   236.91039611
_cell_formula_units_Z   1
loop_
 _symmetry_equiv_pos_site_id
 _symmetry_equiv_pos_as_xyz
  1  'x, y, z'
loop_
 _atom_site_type_symbol
 _atom_site_label
 _atom_site_symmetry_multiplicity
 _atom_site_fract_x
 _atom_site_fract_y
 _atom_site_fract_z
 _atom_site_occupancy
  Er  Er0  1  0.00000000  0.60819300  0.50000000  1
  Er  Er1  1  0.23917900  0.00000000  0.00000000  1
  Er  Er2  1  0.00000000  0.23917900  0.00000000  1
  Er  Er3  1  0.60819300  0.00000000  0.50000000  1
  Er  Er4  1  0.39180700  0.39180700  0.50000000  1
  Er  Er5  1  0.76082100  0.76082100  0.00000000  1
  Te  Te6  1  0.33333300  0.66666700  0.00000000  1
  Te  Te7  1  0.66666700  0.33333300  0.00000000  1
  Ru  Ru8  1  0.00000000  0.00000000  0.50000000  1
