# generated using pymatgen
data_Na3(CoO2)4
_symmetry_space_group_name_H-M   'P 1'
_cell_length_a   2.87968300
_cell_length_b   9.81556700
_cell_length_c   10.88678400
_cell_angle_alpha   90.00000000
_cell_angle_beta   90.00000000
_cell_angle_gamma   90.00000000
_symmetry_Int_Tables_number   1
_chemical_formula_structural   Na3(CoO2)4
_chemical_formula_sum   'Na6 Co8 O16'
_cell_volume   307.72280376
_cell_formula_units_Z   2
loop_
 _symmetry_equiv_pos_site_id
 _symmetry_equiv_pos_as_xyz
  1  'x, y, z'
loop_
 _atom_site_type_symbol
 _atom_site_label
 _atom_site_symmetry_multiplicity
 _atom_site_fract_x
 _atom_site_fract_y
 _atom_site_fract_z
 _atom_site_occupancy
  Na  Na0  1  0.00000000  0.35600200  0.50000000  1
  Na  Na1  1  0.00000000  0.69543900  0.50000000  1
  Na  Na2  1  0.00000000  0.00818900  0.00000000  1
  Na  Na3  1  0.50000000  0.64399800  0.00000000  1
  Na  Na4  1  0.50000000  0.99181100  0.50000000  1
  Na  Na5  1  0.50000000  0.30456100  0.00000000  1
  Co  Co6  1  0.00000000  0.87414100  0.74796400  1
  Co  Co7  1  0.00000000  0.87414100  0.25203600  1
  Co  Co8  1  0.00000000  0.37630400  0.75515700  1
  Co  Co9  1  0.00000000  0.37630400  0.24484300  1
  Co  Co10  1  0.50000000  0.62369600  0.74484300  1
  Co  Co11  1  0.50000000  0.62369600  0.25515700  1
  Co  Co12  1  0.50000000  0.12585900  0.24796400  1
  Co  Co13  1  0.50000000  0.12585900  0.75203600  1
  O  O14  1  0.00000000  0.70768800  0.83582200  1
  O  O15  1  0.00000000  0.20795900  0.84755000  1
  O  O16  1  0.00000000  0.70768800  0.16417800  1
  O  O17  1  0.00000000  0.53714700  0.65818400  1
  O  O18  1  0.00000000  0.20795900  0.15245000  1
  O  O19  1  0.00000000  0.04344300  0.66156500  1
  O  O20  1  0.00000000  0.53714700  0.34181600  1
  O  O21  1  0.00000000  0.04344300  0.33843500  1
  O  O22  1  0.50000000  0.46285300  0.84181600  1
  O  O23  1  0.50000000  0.95655700  0.83843500  1
  O  O24  1  0.50000000  0.79204100  0.65245000  1
  O  O25  1  0.50000000  0.29231200  0.66417800  1
  O  O26  1  0.50000000  0.95655700  0.16156500  1
  O  O27  1  0.50000000  0.79204100  0.34755000  1
  O  O28  1  0.50000000  0.46285300  0.15818400  1
  O  O29  1  0.50000000  0.29231200  0.33582200  1
