# generated using pymatgen
data_Na5Fe2P2(CO7)2
_symmetry_space_group_name_H-M   'P 1'
_cell_length_a   5.24329323
_cell_length_b   11.21216178
_cell_length_c   11.21263602
_cell_angle_alpha   107.30705660
_cell_angle_beta   89.33288610
_cell_angle_gamma   90.67149826
_symmetry_Int_Tables_number   1
_chemical_formula_structural   Na5Fe2P2(CO7)2
_chemical_formula_sum   'Na10 Fe4 P4 C4 O28'
_cell_volume   629.26483524
_cell_formula_units_Z   2
loop_
 _symmetry_equiv_pos_site_id
 _symmetry_equiv_pos_as_xyz
  1  'x, y, z'
loop_
 _atom_site_type_symbol
 _atom_site_label
 _atom_site_symmetry_multiplicity
 _atom_site_fract_x
 _atom_site_fract_y
 _atom_site_fract_z
 _atom_site_occupancy
  Na  Na0  1  0.23691600  0.91374800  0.83631300  1
  Na  Na1  1  0.23691900  0.41368700  0.33624500  1
  Na  Na2  1  0.24319900  0.87920100  0.12594200  1
  Na  Na3  1  0.24350000  0.37919600  0.62596200  1
  Na  Na4  1  0.24329800  0.12404100  0.37078300  1
  Na  Na5  1  0.24359000  0.62402100  0.87080000  1
  Na  Na6  1  0.75151300  0.87655600  0.62661500  1
  Na  Na7  1  0.75157300  0.37655700  0.12658500  1
  Na  Na8  1  0.75156200  0.12341100  0.87344800  1
  Na  Na9  1  0.75151100  0.62338400  0.37344600  1
  Fe  Fe10  1  0.78023500  0.19705700  0.55303600  1
  Fe  Fe11  1  0.78016700  0.69700500  0.05298800  1
  Fe  Fe12  1  0.21571100  0.30142500  0.94856800  1
  Fe  Fe13  1  0.21515200  0.80144400  0.44856400  1
  P  P14  1  0.71567100  0.91359000  0.33643900  1
  P  P15  1  0.71579100  0.41355800  0.83646400  1
  P  P16  1  0.29734500  0.08350500  0.66646500  1
  P  P17  1  0.29734300  0.58351400  0.16648200  1
  C  C18  1  0.72643800  0.34308700  0.40691400  1
  C  C19  1  0.72643600  0.84309000  0.90691800  1
  C  C20  1  0.26565700  0.66261900  0.58737900  1
  C  C21  1  0.26633700  0.16263900  0.08735900  1
  O  O22  1  0.29476800  0.09363100  0.15636800  1
  O  O23  1  0.29466600  0.59363000  0.65636700  1
  O  O24  1  0.94918600  0.31191700  0.43806900  1
  O  O25  1  0.94917700  0.81191300  0.93806500  1
  O  O26  1  0.52212600  0.30128500  0.44870700  1
  O  O27  1  0.52212400  0.80127400  0.94869900  1
  O  O28  1  0.17297900  0.16009200  0.58988000  1
  O  O29  1  0.17297200  0.66010200  0.08989100  1
  O  O30  1  0.41963900  0.89450200  0.35548900  1
  O  O31  1  0.41972300  0.39450200  0.85549100  1
  O  O32  1  0.59304300  0.09021500  0.65976900  1
  O  O33  1  0.59304500  0.59028300  0.15982500  1
  O  O34  1  0.85621000  0.83733000  0.41265100  1
  O  O35  1  0.85670600  0.33740400  0.91259200  1
  O  O36  1  0.45894400  0.71118500  0.53881300  1
  O  O37  1  0.46002400  0.21119800  0.03880200  1
  O  O38  1  0.04243500  0.69486000  0.55513800  1
  O  O39  1  0.04309700  0.19487500  0.05512400  1
  O  O40  1  0.70808000  0.91442500  0.83557900  1
  O  O41  1  0.70807300  0.41442400  0.33557300  1
  O  O42  1  0.78326900  0.86327000  0.19725100  1
  O  O43  1  0.78321200  0.36320600  0.69724500  1
  O  O44  1  0.78338600  0.05277700  0.38676100  1
  O  O45  1  0.78324200  0.55277300  0.88677400  1
  O  O46  1  0.21085100  0.94232900  0.61999400  1
  O  O47  1  0.21120300  0.44231500  0.11994000  1
  O  O48  1  0.21120200  0.13005900  0.80767000  1
  O  O49  1  0.21090300  0.62998000  0.30766700  1
