# generated using pymatgen
data_LiMnF4
_symmetry_space_group_name_H-M   'P 1'
_cell_length_a   6.01427900
_cell_length_b   10.17929180
_cell_length_c   10.18636015
_cell_angle_alpha   85.02639378
_cell_angle_beta   107.16855622
_cell_angle_gamma   107.09944484
_symmetry_Int_Tables_number   1
_chemical_formula_structural   LiMnF4
_chemical_formula_sum   'Li8 Mn8 F32'
_cell_volume   569.49373917
_cell_formula_units_Z   8
loop_
 _symmetry_equiv_pos_site_id
 _symmetry_equiv_pos_as_xyz
  1  'x, y, z'
loop_
 _atom_site_type_symbol
 _atom_site_label
 _atom_site_symmetry_multiplicity
 _atom_site_fract_x
 _atom_site_fract_y
 _atom_site_fract_z
 _atom_site_occupancy
  Li  Li0  1  0.87724700  0.74917500  0.00139400  1
  Li  Li1  1  0.87307300  0.24990800  0.50189400  1
  Li  Li2  1  0.37130300  0.99990600  0.24845200  1
  Li  Li3  1  0.12167400  0.50308000  0.25007100  1
  Li  Li4  1  0.87460600  0.49560200  0.74841900  1
  Li  Li5  1  0.62724300  0.00282300  0.74973800  1
  Li  Li6  1  0.13308600  0.75365900  0.49605700  1
  Li  Li7  1  0.12179600  0.25051700  0.99659600  1
  Mn  Mn8  1  0.63695000  0.25519900  0.99927700  1
  Mn  Mn9  1  0.36510200  0.50124300  0.74616400  1
  Mn  Mn10  1  0.88139700  0.00098300  0.24664400  1
  Mn  Mn11  1  0.62342300  0.75459100  0.50111300  1
  Mn  Mn12  1  0.37950400  0.24478400  0.50005700  1
  Mn  Mn13  1  0.11666300  0.99898800  0.75549500  1
  Mn  Mn14  1  0.63559300  0.49970800  0.25526800  1
  Mn  Mn15  1  0.36326000  0.74492000  0.00021400  1
  F  F16  1  0.49322900  0.34246300  0.09733300  1
  F  F17  1  0.86186800  0.60042700  0.16543900  1
  F  F18  1  0.86733400  0.41123900  0.35282600  1
  F  F19  1  0.65142800  0.10007700  0.16032200  1
  F  F20  1  0.90051500  0.09903400  0.66505700  1
  F  F21  1  0.95606600  0.35325400  0.08717800  1
  F  F22  1  0.04964500  0.15930800  0.40220600  1
  F  F23  1  0.23954200  0.34422700  0.58826500  1
  F  F24  1  0.30879500  0.15498300  0.91339800  1
  F  F25  1  0.49194700  0.85259800  0.59076400  1
  F  F26  1  0.23384200  0.83505900  0.09868300  1
  F  F27  1  0.30617900  0.66573000  0.40088600  1
  F  F28  1  0.10305000  0.09051500  0.14927300  1
  F  F29  1  0.60769600  0.41496100  0.84552500  1
  F  F30  1  0.34458300  0.08664400  0.65567700  1
  F  F31  1  0.60651300  0.59860100  0.65887300  1
  F  F32  1  0.39456100  0.40203200  0.34260900  1
  F  F33  1  0.65442000  0.91443400  0.34714500  1
  F  F34  1  0.39429400  0.58727600  0.15674200  1
  F  F35  1  0.89480100  0.91053200  0.85310000  1
  F  F36  1  0.69581400  0.33429800  0.60014200  1
  F  F37  1  0.76279400  0.16524500  0.89854100  1
  F  F38  1  0.51235300  0.14752200  0.41071900  1
  F  F39  1  0.68934200  0.84526300  0.08940300  1
  F  F40  1  0.76334700  0.65487200  0.41349200  1
  F  F41  1  0.95310500  0.84069900  0.59868300  1
  F  F42  1  0.04594100  0.64734300  0.90931300  1
  F  F43  1  0.09881900  0.90120600  0.33637000  1
  F  F44  1  0.34975100  0.90238800  0.84314300  1
  F  F45  1  0.13320600  0.58844900  0.64752300  1
  F  F46  1  0.14064500  0.40120500  0.83731700  1
  F  F47  1  0.51225300  0.65885700  0.90396800  1
