# generated using pymatgen
data_Na2Mn(SO4)2
_symmetry_space_group_name_H-M   'P 1'
_cell_length_a   6.56564274
_cell_length_b   6.56560718
_cell_length_c   8.96222671
_cell_angle_alpha   69.06671147
_cell_angle_beta   110.93331082
_cell_angle_gamma   102.28856650
_symmetry_Int_Tables_number   1
_chemical_formula_structural   Na2Mn(SO4)2
_chemical_formula_sum   'Na4 Mn2 S4 O16'
_cell_volume   335.41187217
_cell_formula_units_Z   2
loop_
 _symmetry_equiv_pos_site_id
 _symmetry_equiv_pos_as_xyz
  1  'x, y, z'
loop_
 _atom_site_type_symbol
 _atom_site_label
 _atom_site_symmetry_multiplicity
 _atom_site_fract_x
 _atom_site_fract_y
 _atom_site_fract_z
 _atom_site_occupancy
  Na  Na0  1  0.30922800  0.58796100  0.55949100  1
  Na  Na1  1  0.58796100  0.30921100  0.94052000  1
  Na  Na2  1  0.41207600  0.69084000  0.05948400  1
  Na  Na3  1  0.69083900  0.41208200  0.44053100  1
  Mn  Mn4  1  0.07898800  0.07904900  0.25000400  1
  Mn  Mn5  1  0.92072000  0.92072500  0.74998100  1
  S  S6  1  0.02407300  0.39682700  0.82032200  1
  S  S7  1  0.60314500  0.97597200  0.32032300  1
  S  S8  1  0.39683100  0.02407400  0.67968000  1
  S  S9  1  0.97597500  0.60315000  0.17967300  1
  O  O10  1  0.28519100  0.97429200  0.81062400  1
  O  O11  1  0.02576900  0.71471500  0.31067700  1
  O  O12  1  0.97429900  0.28520300  0.68936700  1
  O  O13  1  0.71472900  0.02575500  0.18932500  1
  O  O14  1  0.23960800  0.96019000  0.53249500  1
  O  O15  1  0.03986800  0.76044900  0.03252700  1
  O  O16  1  0.96017400  0.23960000  0.96749400  1
  O  O17  1  0.76045600  0.03987200  0.46747100  1
  O  O18  1  0.26126900  0.47379600  0.86655800  1
  O  O19  1  0.52626000  0.73876100  0.36658200  1
  O  O20  1  0.47381000  0.26126800  0.63345700  1
  O  O21  1  0.73876200  0.52625200  0.13342000  1
  O  O22  1  0.58531600  0.88747400  0.75532500  1
  O  O23  1  0.11252500  0.41464000  0.25526000  1
  O  O24  1  0.88747900  0.58532100  0.74467500  1
  O  O25  1  0.41464800  0.11252100  0.24473300  1
