# generated using pymatgen
data_RbNO2
_symmetry_space_group_name_H-M   'P 1'
_cell_length_a   5.78213902
_cell_length_b   5.78213902
_cell_length_c   7.65195400
_cell_angle_alpha   90.00000000
_cell_angle_beta   90.00000000
_cell_angle_gamma   119.99998882
_symmetry_Int_Tables_number   1
_chemical_formula_structural   RbNO2
_chemical_formula_sum   'Rb3 N3 O6'
_cell_volume   221.55425239
_cell_formula_units_Z   3
loop_
 _symmetry_equiv_pos_site_id
 _symmetry_equiv_pos_as_xyz
  1  'x, y, z'
loop_
 _atom_site_type_symbol
 _atom_site_label
 _atom_site_symmetry_multiplicity
 _atom_site_fract_x
 _atom_site_fract_y
 _atom_site_fract_z
 _atom_site_occupancy
  Rb  Rb0  1  0.00000000  0.70136800  0.66666700  1
  Rb  Rb1  1  0.29863200  0.29863200  0.00000000  1
  Rb  Rb2  1  0.70136800  0.00000000  0.33333300  1
  N  N3  1  0.00000000  0.68510000  0.16666700  1
  N  N4  1  0.31490000  0.31490000  0.50000000  1
  N  N5  1  0.68510000  0.00000000  0.83333300  1
  O  O6  1  0.11948700  0.62649500  0.28300200  1
  O  O7  1  0.50700800  0.88051300  0.94966800  1
  O  O8  1  0.37350500  0.49299200  0.61633500  1
  O  O9  1  0.49299200  0.37350500  0.38366500  1
  O  O10  1  0.62649500  0.11948700  0.71699800  1
  O  O11  1  0.88051300  0.50700800  0.05033200  1
