# generated using pymatgen
data_Sm2Ge2O7
_symmetry_space_group_name_H-M   'P 1'
_cell_length_a   5.92034193
_cell_length_b   5.92034193
_cell_length_c   5.04812530
_cell_angle_alpha   82.78104186
_cell_angle_beta   82.78104186
_cell_angle_gamma   105.01821899
_symmetry_Int_Tables_number   1
_chemical_formula_structural   Sm2Ge2O7
_chemical_formula_sum   'Sm2 Ge2 O7'
_cell_volume   167.21334088
_cell_formula_units_Z   1
loop_
 _symmetry_equiv_pos_site_id
 _symmetry_equiv_pos_as_xyz
  1  'x, y, z'
loop_
 _atom_site_type_symbol
 _atom_site_label
 _atom_site_symmetry_multiplicity
 _atom_site_fract_x
 _atom_site_fract_y
 _atom_site_fract_z
 _atom_site_occupancy
  Sm  Sm0  1  0.30424000  0.69576000  0.50000000  1
  Sm  Sm1  1  0.69576000  0.30424000  0.50000000  1
  Ge  Ge2  1  0.77282900  0.77282900  0.91245600  1
  Ge  Ge3  1  0.22717100  0.22717100  0.08754400  1
  O  O4  1  0.91489000  0.60450600  0.71740400  1
  O  O5  1  0.60450600  0.91489000  0.71740400  1
  O  O6  1  0.60505400  0.60505400  0.22062300  1
  O  O7  1  0.39494600  0.39494600  0.77937700  1
  O  O8  1  0.00000000  0.00000000  0.00000000  1
  O  O9  1  0.08511000  0.39549400  0.28259600  1
  O  O10  1  0.39549400  0.08511000  0.28259600  1
