# generated using pymatgen
data_CrHSe3O8
_symmetry_space_group_name_H-M   'P 1'
_cell_length_a   7.73348800
_cell_length_b   8.99553700
_cell_length_c   11.43803500
_cell_angle_alpha   90.00000000
_cell_angle_beta   90.00000000
_cell_angle_gamma   90.00000000
_symmetry_Int_Tables_number   1
_chemical_formula_structural   CrHSe3O8
_chemical_formula_sum   'Cr4 H4 Se12 O32'
_cell_volume   795.70837903
_cell_formula_units_Z   4
loop_
 _symmetry_equiv_pos_site_id
 _symmetry_equiv_pos_as_xyz
  1  'x, y, z'
loop_
 _atom_site_type_symbol
 _atom_site_label
 _atom_site_symmetry_multiplicity
 _atom_site_fract_x
 _atom_site_fract_y
 _atom_site_fract_z
 _atom_site_occupancy
  Cr  Cr0  1  0.00000000  0.00000000  0.00000000  1
  Cr  Cr1  1  0.00000000  0.00000000  0.50000000  1
  Cr  Cr2  1  0.50000000  0.50000000  0.50000000  1
  Cr  Cr3  1  0.50000000  0.50000000  0.00000000  1
  H  H4  1  0.55522200  0.13336600  0.25000000  1
  H  H5  1  0.05522200  0.36663400  0.75000000  1
  H  H6  1  0.94477800  0.63336600  0.25000000  1
  H  H7  1  0.44477800  0.86663400  0.75000000  1
  Se  Se8  1  0.19556700  0.01296100  0.75000000  1
  Se  Se9  1  0.70600100  0.21812900  0.60673800  1
  Se  Se10  1  0.70600100  0.21812900  0.89326200  1
  Se  Se11  1  0.20600100  0.28187100  0.10673800  1
  Se  Se12  1  0.20600100  0.28187100  0.39326200  1
  Se  Se13  1  0.69556700  0.48703900  0.25000000  1
  Se  Se14  1  0.30443300  0.51296100  0.75000000  1
  Se  Se15  1  0.79399900  0.71812900  0.60673800  1
  Se  Se16  1  0.79399900  0.71812900  0.89326200  1
  Se  Se17  1  0.29399900  0.78187100  0.10673800  1
  Se  Se18  1  0.29399900  0.78187100  0.39326200  1
  Se  Se19  1  0.80443300  0.98703900  0.25000000  1
  O  O20  1  0.57589100  0.02533100  0.25000000  1
  O  O21  1  0.86884900  0.09543800  0.13431700  1
  O  O22  1  0.86884900  0.09543800  0.36568300  1
  O  O23  1  0.21592200  0.11994100  0.03045100  1
  O  O24  1  0.21592200  0.11994100  0.46954900  1
  O  O25  1  0.91796300  0.16516000  0.60470300  1
  O  O26  1  0.91796300  0.16516000  0.89529700  1
  O  O27  1  0.21395200  0.18830800  0.25000000  1
  O  O28  1  0.71395200  0.31169200  0.75000000  1
  O  O29  1  0.41796300  0.33484000  0.10470300  1
  O  O30  1  0.41796300  0.33484000  0.39529700  1
  O  O31  1  0.71592200  0.38005900  0.53045100  1
  O  O32  1  0.71592200  0.38005900  0.96954900  1
  O  O33  1  0.36884900  0.40456200  0.63431700  1
  O  O34  1  0.36884900  0.40456200  0.86568300  1
  O  O35  1  0.07589100  0.47466900  0.75000000  1
  O  O36  1  0.92410900  0.52533100  0.25000000  1
  O  O37  1  0.63115100  0.59543800  0.13431700  1
  O  O38  1  0.63115100  0.59543800  0.36568300  1
  O  O39  1  0.28407800  0.61994100  0.03045100  1
  O  O40  1  0.28407800  0.61994100  0.46954900  1
  O  O41  1  0.58203700  0.66516000  0.60470300  1
  O  O42  1  0.58203700  0.66516000  0.89529700  1
  O  O43  1  0.28604800  0.68830800  0.25000000  1
  O  O44  1  0.78604800  0.81169200  0.75000000  1
  O  O45  1  0.08203700  0.83484000  0.10470300  1
  O  O46  1  0.08203700  0.83484000  0.39529700  1
  O  O47  1  0.78407800  0.88005900  0.53045100  1
  O  O48  1  0.78407800  0.88005900  0.96954900  1
  O  O49  1  0.13115100  0.90456200  0.63431700  1
  O  O50  1  0.13115100  0.90456200  0.86568300  1
  O  O51  1  0.42410900  0.97466900  0.75000000  1
