# generated using pymatgen
data_RbFeP2(HO4)2
_symmetry_space_group_name_H-M   'P 1'
_cell_length_a   18.47427305
_cell_length_b   18.47427305
_cell_length_c   18.47427392
_cell_angle_alpha   25.96881313
_cell_angle_beta   25.96881313
_cell_angle_gamma   25.96881304
_symmetry_Int_Tables_number   1
_chemical_formula_structural   RbFeP2(HO4)2
_chemical_formula_sum   'Rb6 Fe6 P12 H12 O48'
_cell_volume   1064.90899482
_cell_formula_units_Z   6
loop_
 _symmetry_equiv_pos_site_id
 _symmetry_equiv_pos_as_xyz
  1  'x, y, z'
loop_
 _atom_site_type_symbol
 _atom_site_label
 _atom_site_symmetry_multiplicity
 _atom_site_fract_x
 _atom_site_fract_y
 _atom_site_fract_z
 _atom_site_occupancy
  Rb  Rb0  1  0.75000000  0.75000000  0.75000000  1
  Rb  Rb1  1  0.25000000  0.25000000  0.25000000  1
  Rb  Rb2  1  0.83286100  0.83286100  0.83286100  1
  Rb  Rb3  1  0.33286100  0.33286100  0.33286100  1
  Rb  Rb4  1  0.16713900  0.16713900  0.16713900  1
  Rb  Rb5  1  0.66713900  0.66713900  0.66713900  1
  Fe  Fe6  1  0.41382500  0.41382500  0.41382500  1
  Fe  Fe7  1  0.91382500  0.91382500  0.91382500  1
  Fe  Fe8  1  0.58617500  0.58617500  0.58617500  1
  Fe  Fe9  1  0.08617500  0.08617500  0.08617500  1
  Fe  Fe10  1  0.50000000  0.50000000  0.50000000  1
  Fe  Fe11  1  0.00000000  0.00000000  0.00000000  1
  P  P12  1  0.20091100  0.75951600  0.40136100  1
  P  P13  1  0.40136100  0.20091100  0.75951600  1
  P  P14  1  0.75951600  0.40136100  0.20091100  1
  P  P15  1  0.90136100  0.25951600  0.70091100  1
  P  P16  1  0.70091100  0.90136100  0.25951600  1
  P  P17  1  0.25951600  0.70091100  0.90136100  1
  P  P18  1  0.79908900  0.24048400  0.59863900  1
  P  P19  1  0.59863900  0.79908900  0.24048400  1
  P  P20  1  0.24048400  0.59863900  0.79908900  1
  P  P21  1  0.09863900  0.74048400  0.29908900  1
  P  P22  1  0.29908900  0.09863900  0.74048400  1
  P  P23  1  0.74048400  0.29908900  0.09863900  1
  H  H24  1  0.01416300  0.41996600  0.92638400  1
  H  H25  1  0.92638400  0.01416300  0.41996600  1
  H  H26  1  0.41996600  0.92638400  0.01416300  1
  H  H27  1  0.42638400  0.91996600  0.51416300  1
  H  H28  1  0.51416300  0.42638400  0.91996600  1
  H  H29  1  0.91996600  0.51416300  0.42638400  1
  H  H30  1  0.98583700  0.58003400  0.07361600  1
  H  H31  1  0.07361600  0.98583700  0.58003400  1
  H  H32  1  0.58003400  0.07361600  0.98583700  1
  H  H33  1  0.57361600  0.08003400  0.48583700  1
  H  H34  1  0.48583700  0.57361600  0.08003400  1
  H  H35  1  0.08003400  0.48583700  0.57361600  1
  O  O36  1  0.31868200  0.70724800  0.41114100  1
  O  O37  1  0.41114100  0.31868200  0.70724800  1
  O  O38  1  0.70724800  0.41114100  0.31868200  1
  O  O39  1  0.91114100  0.20724800  0.81868200  1
  O  O40  1  0.81868200  0.91114100  0.20724800  1
  O  O41  1  0.20724800  0.81868200  0.91114100  1
  O  O42  1  0.68131800  0.29275200  0.58885900  1
  O  O43  1  0.58885900  0.68131800  0.29275200  1
  O  O44  1  0.29275200  0.58885900  0.68131800  1
  O  O45  1  0.08885900  0.79275200  0.18131800  1
  O  O46  1  0.18131800  0.08885900  0.79275200  1
  O  O47  1  0.79275200  0.18131800  0.08885900  1
  O  O48  1  0.20807100  0.59177200  0.50398300  1
  O  O49  1  0.50398300  0.20807100  0.59177200  1
  O  O50  1  0.59177200  0.50398300  0.20807100  1
  O  O51  1  0.00398300  0.09177200  0.70807100  1
  O  O52  1  0.70807100  0.00398300  0.09177200  1
  O  O53  1  0.09177200  0.70807100  0.00398300  1
  O  O54  1  0.79192900  0.40822800  0.49601700  1
  O  O55  1  0.49601700  0.79192900  0.40822800  1
  O  O56  1  0.40822800  0.49601700  0.79192900  1
  O  O57  1  0.99601700  0.90822800  0.29192900  1
  O  O58  1  0.29192900  0.99601700  0.90822800  1
  O  O59  1  0.90822800  0.29192900  0.99601700  1
  O  O60  1  0.98521100  0.88505700  0.50744300  1
  O  O61  1  0.50744300  0.98521100  0.88505700  1
  O  O62  1  0.88505700  0.50744300  0.98521100  1
  O  O63  1  0.00744300  0.38505700  0.48521100  1
  O  O64  1  0.48521100  0.00744300  0.38505700  1
  O  O65  1  0.38505700  0.48521100  0.00744300  1
  O  O66  1  0.01478900  0.11494300  0.49255700  1
  O  O67  1  0.49255700  0.01478900  0.11494300  1
  O  O68  1  0.11494300  0.49255700  0.01478900  1
  O  O69  1  0.99255700  0.61494300  0.51478900  1
  O  O70  1  0.51478900  0.99255700  0.61494300  1
  O  O71  1  0.61494300  0.51478900  0.99255700  1
  O  O72  1  0.25425700  0.30411500  0.60999500  1
  O  O73  1  0.60999500  0.25425700  0.30411500  1
  O  O74  1  0.30411500  0.60999500  0.25425700  1
  O  O75  1  0.10999500  0.80411500  0.75425700  1
  O  O76  1  0.75425700  0.10999500  0.80411500  1
  O  O77  1  0.80411500  0.75425700  0.10999500  1
  O  O78  1  0.74574300  0.69588500  0.39000500  1
  O  O79  1  0.39000500  0.74574300  0.69588500  1
  O  O80  1  0.69588500  0.39000500  0.74574300  1
  O  O81  1  0.89000500  0.19588500  0.24574300  1
  O  O82  1  0.24574300  0.89000500  0.19588500  1
  O  O83  1  0.19588500  0.24574300  0.89000500  1
