# generated using pymatgen
data_Rb4FeO4
_symmetry_space_group_name_H-M   'P 1'
_cell_length_a   6.78041610
_cell_length_b   9.97563458
_cell_length_c   12.73330548
_cell_angle_alpha   83.01144287
_cell_angle_beta   98.96254127
_cell_angle_gamma   111.53962255
_symmetry_Int_Tables_number   1
_chemical_formula_structural   Rb4FeO4
_chemical_formula_sum   'Rb16 Fe4 O16'
_cell_volume   789.38783876
_cell_formula_units_Z   4
loop_
 _symmetry_equiv_pos_site_id
 _symmetry_equiv_pos_as_xyz
  1  'x, y, z'
loop_
 _atom_site_type_symbol
 _atom_site_label
 _atom_site_symmetry_multiplicity
 _atom_site_fract_x
 _atom_site_fract_y
 _atom_site_fract_z
 _atom_site_occupancy
  Rb  Rb0  1  0.95491200  0.02590600  0.13851800  1
  Rb  Rb1  1  0.45490100  0.02588100  0.63848700  1
  Rb  Rb2  1  0.54513900  0.97411700  0.36162000  1
  Rb  Rb3  1  0.04523600  0.97409500  0.86161100  1
  Rb  Rb4  1  0.09445900  0.42610000  0.13380700  1
  Rb  Rb5  1  0.59441900  0.42608900  0.63380900  1
  Rb  Rb6  1  0.40548700  0.57380300  0.36609000  1
  Rb  Rb7  1  0.90554100  0.57381600  0.86607700  1
  Rb  Rb8  1  0.37521400  0.85016400  0.10999300  1
  Rb  Rb9  1  0.87522000  0.85017800  0.61001400  1
  Rb  Rb10  1  0.12496800  0.14986100  0.39013100  1
  Rb  Rb11  1  0.62504100  0.14989100  0.89012100  1
  Rb  Rb12  1  0.70350900  0.62918000  0.11587700  1
  Rb  Rb13  1  0.20347400  0.62917700  0.61586100  1
  Rb  Rb14  1  0.79672600  0.37093600  0.38401900  1
  Rb  Rb15  1  0.29672400  0.37095500  0.88401200  1
  Fe  Fe16  1  0.03865300  0.24728500  0.62639200  1
  Fe  Fe17  1  0.96116100  0.75273800  0.37357400  1
  Fe  Fe18  1  0.53872600  0.24732000  0.12643000  1
  Fe  Fe19  1  0.46131000  0.75260800  0.87366900  1
  O  O20  1  0.32164900  0.12262100  0.04000900  1
  O  O21  1  0.82153300  0.12253400  0.53995200  1
  O  O22  1  0.17828600  0.87751100  0.46000600  1
  O  O23  1  0.67829100  0.87744600  0.95995800  1
  O  O24  1  0.69160400  0.37334800  0.02426900  1
  O  O25  1  0.19155000  0.37328500  0.52426600  1
  O  O26  1  0.80831300  0.62676700  0.47573200  1
  O  O27  1  0.30835900  0.62673600  0.97574700  1
  O  O28  1  0.74883700  0.19468600  0.21087000  1
  O  O29  1  0.24864800  0.19465200  0.71081900  1
  O  O30  1  0.75110500  0.80526000  0.28910400  1
  O  O31  1  0.25116700  0.80519000  0.78910400  1
  O  O32  1  0.09141500  0.69794900  0.27765300  1
  O  O33  1  0.59137700  0.69784000  0.77765600  1
  O  O34  1  0.40861600  0.30207800  0.22236900  1
  O  O35  1  0.90842800  0.30199700  0.72237500  1
