# generated using pymatgen
data_Li2FeCo3O8
_symmetry_space_group_name_H-M   'P 1'
_cell_length_a   8.17818486
_cell_length_b   8.17448185
_cell_length_c   8.17110205
_cell_angle_alpha   89.91939497
_cell_angle_beta   89.98948377
_cell_angle_gamma   90.05143834
_symmetry_Int_Tables_number   1
_chemical_formula_structural   Li2FeCo3O8
_chemical_formula_sum   'Li8 Fe4 Co12 O32'
_cell_volume   546.25720641
_cell_formula_units_Z   4
loop_
 _symmetry_equiv_pos_site_id
 _symmetry_equiv_pos_as_xyz
  1  'x, y, z'
loop_
 _atom_site_type_symbol
 _atom_site_label
 _atom_site_symmetry_multiplicity
 _atom_site_fract_x
 _atom_site_fract_y
 _atom_site_fract_z
 _atom_site_occupancy
  Li  Li0  1  0.99827200  0.99778900  0.99869800  1
  Li  Li1  1  0.25229100  0.25177200  0.25109200  1
  Li  Li2  1  0.24740800  0.74639300  0.75232600  1
  Li  Li3  1  0.50193200  0.00304800  0.49767700  1
  Li  Li4  1  0.49741100  0.50281100  0.00261900  1
  Li  Li5  1  0.75226800  0.24776100  0.74775800  1
  Li  Li6  1  0.74860100  0.75121900  0.24634200  1
  Li  Li7  1  0.00273100  0.49864900  0.50246900  1
  Fe  Fe8  1  0.12472700  0.87375300  0.37262300  1
  Fe  Fe9  1  0.37613600  0.12702600  0.87605300  1
  Fe  Fe10  1  0.62472300  0.62267600  0.62663700  1
  Fe  Fe11  1  0.87564900  0.37891100  0.12249500  1
  Co  Co12  1  0.12299400  0.12868800  0.62556400  1
  Co  Co13  1  0.12418000  0.37885200  0.87278800  1
  Co  Co14  1  0.12774900  0.62412800  0.12179200  1
  Co  Co15  1  0.37162800  0.37488900  0.62162600  1
  Co  Co16  1  0.37564700  0.62189900  0.37265200  1
  Co  Co17  1  0.37780200  0.87214800  0.12517000  1
  Co  Co18  1  0.62181500  0.37160800  0.37429900  1
  Co  Co19  1  0.62489700  0.12156400  0.12873700  1
  Co  Co20  1  0.62779600  0.87506700  0.87823900  1
  Co  Co21  1  0.87121900  0.12666600  0.37617000  1
  Co  Co22  1  0.87444100  0.87691500  0.62854600  1
  Co  Co23  1  0.87827900  0.62790800  0.87538700  1
  O  O24  1  0.10716700  0.12099300  0.39463600  1
  O  O25  1  0.10591300  0.89420800  0.62169400  1
  O  O26  1  0.11131700  0.60955200  0.88865500  1
  O  O27  1  0.12796700  0.14331400  0.85514400  1
  O  O28  1  0.12081000  0.38912000  0.10473500  1
  O  O29  1  0.13816500  0.36085600  0.63939400  1
  O  O30  1  0.14505000  0.62952500  0.35959200  1
  O  O31  1  0.14571300  0.86049300  0.12830400  1
  O  O32  1  0.35264600  0.13945100  0.62890000  1
  O  O33  1  0.35535000  0.37046500  0.85833300  1
  O  O34  1  0.36278000  0.64035900  0.14121500  1
  O  O35  1  0.37911800  0.61037600  0.60257200  1
  O  O36  1  0.37220400  0.85708100  0.35682200  1
  O  O37  1  0.39042100  0.38849600  0.38741300  1
  O  O38  1  0.38978000  0.10353200  0.12063500  1
  O  O39  1  0.39448000  0.87784000  0.89356900  1
  O  O40  1  0.60861100  0.37941700  0.60521600  1
  O  O41  1  0.60572700  0.60588100  0.37833100  1
  O  O42  1  0.61061100  0.88791300  0.11000200  1
  O  O43  1  0.63063100  0.35770400  0.14552400  1
  O  O44  1  0.62058900  0.10462300  0.89146100  1
  O  O45  1  0.63846500  0.13960500  0.36189200  1
  O  O46  1  0.64452700  0.87236500  0.64412300  1
  O  O47  1  0.64094700  0.64544500  0.86981100  1
  O  O48  1  0.85490300  0.35487800  0.37402500  1
  O  O49  1  0.85975000  0.12878200  0.14903900  1
  O  O50  1  0.86011800  0.86229800  0.86103800  1
  O  O51  1  0.87833900  0.89389500  0.39387400  1
  O  O52  1  0.87101800  0.64805100  0.63886400  1
  O  O53  1  0.88952300  0.11050400  0.60953800  1
  O  O54  1  0.89418000  0.39130700  0.87769900  1
  O  O55  1  0.89258200  0.61967000  0.11033300  1
