# generated using pymatgen
data_Eu4O3F7
_symmetry_space_group_name_H-M   'P 1'
_cell_length_a   5.54381047
_cell_length_b   5.88118435
_cell_length_c   5.72539300
_cell_angle_alpha   90.00000000
_cell_angle_beta   90.00000000
_cell_angle_gamma   91.22414654
_symmetry_Int_Tables_number   1
_chemical_formula_structural   Eu4O3F7
_chemical_formula_sum   'Eu4 O3 F7'
_cell_volume   186.62909018
_cell_formula_units_Z   1
loop_
 _symmetry_equiv_pos_site_id
 _symmetry_equiv_pos_as_xyz
  1  'x, y, z'
loop_
 _atom_site_type_symbol
 _atom_site_label
 _atom_site_symmetry_multiplicity
 _atom_site_fract_x
 _atom_site_fract_y
 _atom_site_fract_z
 _atom_site_occupancy
  Eu  Eu0  1  0.02568800  0.24728700  0.27767000  1
  Eu  Eu1  1  0.98439800  0.75034500  0.79577900  1
  Eu  Eu2  1  0.51560200  0.24965500  0.79577900  1
  Eu  Eu3  1  0.47431200  0.75271300  0.27767000  1
  O  O4  1  0.25000000  0.00000000  0.04415600  1
  O  O5  1  0.75000000  0.00000000  0.02196500  1
  O  O6  1  0.25000000  0.50000000  0.99377300  1
  F  F7  1  0.25000000  0.00000000  0.56649200  1
  F  F8  1  0.75000000  0.00000000  0.49007000  1
  F  F9  1  0.42797300  0.35482100  0.39920900  1
  F  F10  1  0.07202700  0.64517900  0.39920900  1
  F  F11  1  0.57455700  0.65362800  0.68541400  1
  F  F12  1  0.92544300  0.34637200  0.68541400  1
  F  F13  1  0.75000000  0.50000000  0.08619900  1
