# generated using pymatgen
data_Sr9(NiO3)7
_symmetry_space_group_name_H-M   'P 1'
_cell_length_a   13.23519218
_cell_length_b   13.23519218
_cell_length_c   13.23519205
_cell_angle_alpha   42.20770341
_cell_angle_beta   42.20770341
_cell_angle_gamma   42.20770332
_symmetry_Int_Tables_number   1
_chemical_formula_structural   Sr9(NiO3)7
_chemical_formula_sum   'Sr18 Ni14 O42'
_cell_volume   946.93515980
_cell_formula_units_Z   2
loop_
 _symmetry_equiv_pos_site_id
 _symmetry_equiv_pos_as_xyz
  1  'x, y, z'
loop_
 _atom_site_type_symbol
 _atom_site_label
 _atom_site_symmetry_multiplicity
 _atom_site_fract_x
 _atom_site_fract_y
 _atom_site_fract_z
 _atom_site_occupancy
  Sr  Sr0  1  0.71713300  0.00518700  0.36409400  1
  Sr  Sr1  1  0.91876600  0.25000000  0.58123400  1
  Sr  Sr2  1  0.78286700  0.13590600  0.49481300  1
  Sr  Sr3  1  0.86409400  0.50518700  0.21713300  1
  Sr  Sr4  1  0.99481300  0.63590600  0.28286700  1
  Sr  Sr5  1  0.41876500  0.08123400  0.75000000  1
  Sr  Sr6  1  0.63590600  0.28286700  0.99481300  1
  Sr  Sr7  1  0.75000000  0.41876500  0.08123400  1
  Sr  Sr8  1  0.50518700  0.21713300  0.86409400  1
  Sr  Sr9  1  0.49481300  0.78286700  0.13590600  1
  Sr  Sr10  1  0.25000000  0.58123400  0.91876600  1
  Sr  Sr11  1  0.36409400  0.71713300  0.00518700  1
  Sr  Sr12  1  0.58123400  0.91876600  0.25000000  1
  Sr  Sr13  1  0.13590600  0.49481300  0.78286700  1
  Sr  Sr14  1  0.00518700  0.36409400  0.71713300  1
  Sr  Sr15  1  0.21713300  0.86409400  0.50518700  1
  Sr  Sr16  1  0.08123400  0.75000000  0.41876600  1
  Sr  Sr17  1  0.28286700  0.99481300  0.63590600  1
  Ni  Ni18  1  0.00000000  0.00000000  0.00000000  1
  Ni  Ni19  1  0.06843800  0.06843800  0.06843800  1
  Ni  Ni20  1  0.21536900  0.21536900  0.21536900  1
  Ni  Ni21  1  0.28463100  0.28463100  0.28463100  1
  Ni  Ni22  1  0.14300800  0.14300800  0.14300800  1
  Ni  Ni23  1  0.35699200  0.35699200  0.35699200  1
  Ni  Ni24  1  0.43156200  0.43156200  0.43156200  1
  Ni  Ni25  1  0.56843800  0.56843800  0.56843800  1
  Ni  Ni26  1  0.64300800  0.64300800  0.64300800  1
  Ni  Ni27  1  0.50000000  0.50000000  0.50000000  1
  Ni  Ni28  1  0.78463100  0.78463100  0.78463100  1
  Ni  Ni29  1  0.85699200  0.85699200  0.85699200  1
  Ni  Ni30  1  0.93156200  0.93156200  0.93156200  1
  Ni  Ni31  1  0.71536900  0.71536900  0.71536900  1
  O  O32  1  0.47075900  0.15350200  0.32223200  1
  O  O33  1  0.34649800  0.02924100  0.17776800  1
  O  O34  1  0.25000000  0.09997100  0.40002900  1
  O  O35  1  0.40002900  0.25000000  0.09997100  1
  O  O36  1  0.32223200  0.47075900  0.15350200  1
  O  O37  1  0.02924100  0.17776800  0.34649800  1
  O  O38  1  0.94696000  0.09047500  0.25648400  1
  O  O39  1  0.95636600  0.12670800  0.81983600  1
  O  O40  1  0.17776800  0.34649800  0.02924100  1
  O  O41  1  0.15350200  0.32223200  0.47075900  1
  O  O42  1  0.74351600  0.05304000  0.90952500  1
  O  O43  1  0.87329200  0.18016400  0.04363400  1
  O  O44  1  0.09997100  0.40002900  0.25000000  1
  O  O45  1  0.68016400  0.37329200  0.54363400  1
  O  O46  1  0.55304000  0.24351600  0.40952500  1
  O  O47  1  0.62670800  0.45636600  0.31983600  1
  O  O48  1  0.75648400  0.59047500  0.44696000  1
  O  O49  1  0.90952500  0.74351600  0.05304000  1
  O  O50  1  0.59047500  0.44696000  0.75648400  1
  O  O51  1  0.18016400  0.04363400  0.87329200  1
  O  O52  1  0.45636600  0.31983600  0.62670800  1
  O  O53  1  0.54363400  0.68016400  0.37329200  1
  O  O54  1  0.81983600  0.95636600  0.12670800  1
  O  O55  1  0.40952500  0.55304000  0.24351600  1
  O  O56  1  0.09047500  0.25648400  0.94696000  1
  O  O57  1  0.24351600  0.40952500  0.55304000  1
  O  O58  1  0.37329200  0.54363400  0.68016400  1
  O  O59  1  0.44696000  0.75648400  0.59047500  1
  O  O60  1  0.31983600  0.62670800  0.45636600  1
  O  O61  1  0.90002900  0.59997100  0.75000000  1
  O  O62  1  0.12670800  0.81983600  0.95636600  1
  O  O63  1  0.25648400  0.94696000  0.09047500  1
  O  O64  1  0.82223200  0.65350200  0.97075900  1
  O  O65  1  0.84649800  0.67776800  0.52924100  1
  O  O66  1  0.04363400  0.87329200  0.18016400  1
  O  O67  1  0.05304000  0.90952500  0.74351600  1
  O  O68  1  0.97075900  0.82223200  0.65350200  1
  O  O69  1  0.67776800  0.52924100  0.84649800  1
  O  O70  1  0.75000000  0.90002900  0.59997100  1
  O  O71  1  0.59997100  0.75000000  0.90002900  1
  O  O72  1  0.52924100  0.84649800  0.67776800  1
  O  O73  1  0.65350200  0.97075900  0.82223200  1
