# generated using pymatgen
data_ReSi
_symmetry_space_group_name_H-M   'P 1'
_cell_length_a   4.80522500
_cell_length_b   4.80522500
_cell_length_c   4.80522500
_cell_angle_alpha   90.00000000
_cell_angle_beta   90.00000000
_cell_angle_gamma   90.00000000
_symmetry_Int_Tables_number   1
_chemical_formula_structural   ReSi
_chemical_formula_sum   'Re4 Si4'
_cell_volume   110.95354527
_cell_formula_units_Z   4
loop_
 _symmetry_equiv_pos_site_id
 _symmetry_equiv_pos_as_xyz
  1  'x, y, z'
loop_
 _atom_site_type_symbol
 _atom_site_label
 _atom_site_symmetry_multiplicity
 _atom_site_fract_x
 _atom_site_fract_y
 _atom_site_fract_z
 _atom_site_occupancy
  Re  Re0  1  0.86592000  0.63408000  0.36592000  1
  Re  Re1  1  0.63408000  0.36592000  0.86592000  1
  Re  Re2  1  0.36592000  0.86592000  0.63408000  1
  Re  Re3  1  0.13408000  0.13408000  0.13408000  1
  Si  Si4  1  0.15570000  0.34430000  0.65570000  1
  Si  Si5  1  0.34430000  0.65570000  0.15570000  1
  Si  Si6  1  0.65570000  0.15570000  0.34430000  1
  Si  Si7  1  0.84430000  0.84430000  0.84430000  1
