# generated using pymatgen
data_Ta2FeOs
_symmetry_space_group_name_H-M   'P 1'
_cell_length_a   4.44602872
_cell_length_b   6.31595701
_cell_length_c   4.44817762
_cell_angle_alpha   90.00415822
_cell_angle_beta   89.97872763
_cell_angle_gamma   89.99599508
_symmetry_Int_Tables_number   1
_chemical_formula_structural   Ta2FeOs
_chemical_formula_sum   'Ta4 Fe2 Os2'
_cell_volume   124.90893830
_cell_formula_units_Z   2
loop_
 _symmetry_equiv_pos_site_id
 _symmetry_equiv_pos_as_xyz
  1  'x, y, z'
loop_
 _atom_site_type_symbol
 _atom_site_label
 _atom_site_symmetry_multiplicity
 _atom_site_fract_x
 _atom_site_fract_y
 _atom_site_fract_z
 _atom_site_occupancy
  Ta  Ta0  1  0.00000800  0.99998300  0.00000600  1
  Ta  Ta1  1  0.50000800  0.49998400  0.50000600  1
  Ta  Ta2  1  0.99999400  0.50001800  0.99999300  1
  Ta  Ta3  1  0.49999400  0.00001700  0.49999300  1
  Fe  Fe4  1  0.50000100  0.25000000  0.00000200  1
  Fe  Fe5  1  0.00000100  0.75000100  0.50000000  1
  Os  Os6  1  0.00000100  0.25000100  0.50000000  1
  Os  Os7  1  0.50000100  0.75000100  0.00000000  1
