# generated using pymatgen
data_BeVFe2
_symmetry_space_group_name_H-M   'P 1'
_cell_length_a   3.89451858
_cell_length_b   3.89451646
_cell_length_c   3.89451858
_cell_angle_alpha   59.99963363
_cell_angle_beta   59.99962762
_cell_angle_gamma   59.99963363
_symmetry_Int_Tables_number   1
_chemical_formula_structural   BeVFe2
_chemical_formula_sum   'Be1 V1 Fe2'
_cell_volume   41.76788457
_cell_formula_units_Z   1
loop_
 _symmetry_equiv_pos_site_id
 _symmetry_equiv_pos_as_xyz
  1  'x, y, z'
loop_
 _atom_site_type_symbol
 _atom_site_label
 _atom_site_symmetry_multiplicity
 _atom_site_fract_x
 _atom_site_fract_y
 _atom_site_fract_z
 _atom_site_occupancy
  Be  Be0  1  0.25000000  0.25000000  0.25000100  1
  V  V1  1  0.75000000  0.74999900  0.75000000  1
  Fe  Fe2  1  0.00000000  0.00000000  0.00000100  1
  Fe  Fe3  1  0.50000000  0.50000100  0.49999800  1
