# generated using pymatgen
data_Na3Np(HO3)2
_symmetry_space_group_name_H-M   'P 1'
_cell_length_a   11.36091755
_cell_length_b   10.51377386
_cell_length_c   6.03729548
_cell_angle_alpha   81.88605627
_cell_angle_beta   66.37233449
_cell_angle_gamma   31.74160924
_symmetry_Int_Tables_number   1
_chemical_formula_structural   Na3Np(HO3)2
_chemical_formula_sum   'Na6 Np2 H4 O12'
_cell_volume   316.33786653
_cell_formula_units_Z   2
loop_
 _symmetry_equiv_pos_site_id
 _symmetry_equiv_pos_as_xyz
  1  'x, y, z'
loop_
 _atom_site_type_symbol
 _atom_site_label
 _atom_site_symmetry_multiplicity
 _atom_site_fract_x
 _atom_site_fract_y
 _atom_site_fract_z
 _atom_site_occupancy
  Na  Na0  1  0.63085000  0.86915000  0.63085000  1
  Na  Na1  1  0.23085100  0.09405700  0.35796100  1
  Na  Na2  1  0.15594300  0.01914900  0.93286900  1
  Na  Na3  1  0.38085000  0.61915000  0.38085000  1
  Na  Na4  1  0.93286900  0.89203900  0.15594300  1
  Na  Na5  1  0.35796100  0.31713100  0.23085100  1
  Np  Np6  1  0.97060000  0.52940000  0.97060000  1
  Np  Np7  1  0.72060000  0.27940000  0.72060000  1
  H  H8  1  0.77302100  0.51623000  0.81704500  1
  H  H9  1  0.73377000  0.47697900  0.35629600  1
  H  H10  1  0.35629600  0.43295500  0.73377000  1
  H  H11  1  0.81704500  0.89370400  0.77302100  1
  O  O12  1  0.20198100  0.18636500  0.99610100  1
  O  O13  1  0.65695000  0.72623700  0.28275600  1
  O  O14  1  0.89733200  0.48065000  0.72810600  1
  O  O15  1  0.76935000  0.35266800  0.35608800  1
  O  O16  1  0.52376300  0.59305000  0.91594200  1
  O  O17  1  0.06363500  0.04801900  0.63444700  1
  O  O18  1  0.63444700  0.25389900  0.06363500  1
  O  O19  1  0.91594200  0.96724400  0.52376300  1
  O  O20  1  0.35608800  0.52189400  0.76935000  1
  O  O21  1  0.72810600  0.89391200  0.89733200  1
  O  O22  1  0.28275600  0.33405800  0.65695000  1
  O  O23  1  0.99610100  0.61555300  0.20198100  1
