# generated using pymatgen
data_UB4W
_symmetry_space_group_name_H-M   'P 1'
_cell_length_a   3.65618200
_cell_length_b   5.96250100
_cell_length_c   11.56467100
_cell_angle_alpha   90.00000000
_cell_angle_beta   90.00000000
_cell_angle_gamma   90.00000000
_symmetry_Int_Tables_number   1
_chemical_formula_structural   UB4W
_chemical_formula_sum   'U4 B16 W4'
_cell_volume   252.10969864
_cell_formula_units_Z   4
loop_
 _symmetry_equiv_pos_site_id
 _symmetry_equiv_pos_as_xyz
  1  'x, y, z'
loop_
 _atom_site_type_symbol
 _atom_site_label
 _atom_site_symmetry_multiplicity
 _atom_site_fract_x
 _atom_site_fract_y
 _atom_site_fract_z
 _atom_site_occupancy
  U  U0  1  0.00000000  0.62859600  0.65036700  1
  U  U1  1  0.00000000  0.37140400  0.34963300  1
  U  U2  1  0.00000000  0.12859600  0.84963300  1
  U  U3  1  0.00000000  0.87140400  0.15036700  1
  B  B4  1  0.50000000  0.97546200  0.69345100  1
  B  B5  1  0.50000000  0.02453800  0.30654900  1
  B  B6  1  0.50000000  0.47546200  0.80654900  1
  B  B7  1  0.50000000  0.52453800  0.19345100  1
  B  B8  1  0.50000000  0.86814600  0.96816000  1
  B  B9  1  0.50000000  0.13185400  0.03184000  1
  B  B10  1  0.50000000  0.36814600  0.53184000  1
  B  B11  1  0.50000000  0.63185400  0.46816000  1
  B  B12  1  0.50000000  0.79299200  0.81160700  1
  B  B13  1  0.50000000  0.20700800  0.18839300  1
  B  B14  1  0.50000000  0.29299200  0.68839300  1
  B  B15  1  0.50000000  0.70700800  0.31160700  1
  B  B16  1  0.50000000  0.88480800  0.54729400  1
  B  B17  1  0.50000000  0.11519200  0.45270600  1
  B  B18  1  0.50000000  0.38480800  0.95270600  1
  B  B19  1  0.50000000  0.61519200  0.04729400  1
  W  W20  1  0.00000000  0.63757800  0.90875800  1
  W  W21  1  0.00000000  0.36242200  0.09124200  1
  W  W22  1  0.00000000  0.13757800  0.59124200  1
  W  W23  1  0.00000000  0.86242200  0.40875800  1
