# generated using pymatgen
data_Li2Cr5(Si2O7)2
_symmetry_space_group_name_H-M   'P 1'
_cell_length_a   5.61466475
_cell_length_b   13.46098820
_cell_length_c   8.04056234
_cell_angle_alpha   82.55376748
_cell_angle_beta   91.20638845
_cell_angle_gamma   84.47556953
_symmetry_Int_Tables_number   1
_chemical_formula_structural   Li2Cr5(Si2O7)2
_chemical_formula_sum   'Li4 Cr10 Si8 O28'
_cell_volume   599.42735934
_cell_formula_units_Z   2
loop_
 _symmetry_equiv_pos_site_id
 _symmetry_equiv_pos_as_xyz
  1  'x, y, z'
loop_
 _atom_site_type_symbol
 _atom_site_label
 _atom_site_symmetry_multiplicity
 _atom_site_fract_x
 _atom_site_fract_y
 _atom_site_fract_z
 _atom_site_occupancy
  Li  Li0  1  0.17325200  0.05483300  0.40117600  1
  Li  Li1  1  0.67308600  0.55475900  0.90110100  1
  Li  Li2  1  0.32692800  0.44523600  0.09887400  1
  Li  Li3  1  0.82676600  0.94516500  0.59880700  1
  Cr  Cr4  1  0.49992300  0.49998500  0.50002200  1
  Cr  Cr5  1  0.88116400  0.19262000  0.61788800  1
  Cr  Cr6  1  0.38090700  0.69313400  0.11701400  1
  Cr  Cr7  1  0.61942800  0.30673400  0.88339000  1
  Cr  Cr8  1  0.11859200  0.80746900  0.38186800  1
  Cr  Cr9  1  0.99993300  0.00006800  0.00003700  1
  Cr  Cr10  1  0.38137200  0.28600700  0.42548100  1
  Cr  Cr11  1  0.88086400  0.78531500  0.92496600  1
  Cr  Cr12  1  0.11914400  0.21468000  0.07501500  1
  Cr  Cr13  1  0.61862400  0.71398900  0.57451500  1
  Si  Si14  1  0.37738900  0.11304900  0.74369400  1
  Si  Si15  1  0.87771400  0.61311600  0.24334200  1
  Si  Si16  1  0.12231900  0.38688100  0.75665300  1
  Si  Si17  1  0.62258000  0.88696200  0.25628900  1
  Si  Si18  1  0.68911800  0.10327100  0.29117300  1
  Si  Si19  1  0.18873900  0.60308000  0.79131600  1
  Si  Si20  1  0.81126600  0.39691800  0.20868200  1
  Si  Si21  1  0.31088900  0.89672500  0.70881300  1
  O  O22  1  0.80037300  0.08360900  0.48359300  1
  O  O23  1  0.29995400  0.58366400  0.98380300  1
  O  O24  1  0.70006800  0.41633400  0.01619500  1
  O  O25  1  0.19962900  0.91639300  0.51640300  1
  O  O26  1  0.60308400  0.17606500  0.77745200  1
  O  O27  1  0.10325500  0.67619000  0.27720100  1
  O  O28  1  0.89673800  0.32380200  0.72281700  1
  O  O29  1  0.39693500  0.82393000  0.22257200  1
  O  O30  1  0.53013100  0.00668300  0.26461100  1
  O  O31  1  0.02958200  0.50660100  0.76499400  1
  O  O32  1  0.97042300  0.49340200  0.23500100  1
  O  O33  1  0.46988800  0.99330600  0.73539200  1
  O  O34  1  0.24056800  0.16217800  0.56224900  1
  O  O35  1  0.74040800  0.66203700  0.06192000  1
  O  O36  1  0.25962900  0.33796300  0.93806900  1
  O  O37  1  0.75942900  0.83781700  0.43774500  1
  O  O38  1  0.93107900  0.09513300  0.17534000  1
  O  O39  1  0.43120100  0.59476000  0.67598900  1
  O  O40  1  0.56878000  0.40524500  0.32398200  1
  O  O41  1  0.06890300  0.90487400  0.82463100  1
  O  O42  1  0.49853400  0.20180000  0.24279300  1
  O  O43  1  0.99846300  0.70159700  0.74242400  1
  O  O44  1  0.00153500  0.29840500  0.25757700  1
  O  O45  1  0.50146000  0.79820400  0.75719100  1
  O  O46  1  0.18500600  0.11646800  0.89482900  1
  O  O47  1  0.68488700  0.61639900  0.39410200  1
  O  O48  1  0.31507700  0.38360500  0.60586200  1
  O  O49  1  0.81498500  0.88354000  0.10514500  1
