# generated using pymatgen
data_Gd4Ni13C4
_symmetry_space_group_name_H-M   'P 1'
_cell_length_a   8.41684357
_cell_length_b   8.42269664
_cell_length_c   3.90507139
_cell_angle_alpha   90.09641527
_cell_angle_beta   90.27260977
_cell_angle_gamma   91.93118880
_symmetry_Int_Tables_number   1
_chemical_formula_structural   Gd4Ni13C4
_chemical_formula_sum   'Gd4 Ni13 C4'
_cell_volume   276.67950982
_cell_formula_units_Z   1
loop_
 _symmetry_equiv_pos_site_id
 _symmetry_equiv_pos_as_xyz
  1  'x, y, z'
loop_
 _atom_site_type_symbol
 _atom_site_label
 _atom_site_symmetry_multiplicity
 _atom_site_fract_x
 _atom_site_fract_y
 _atom_site_fract_z
 _atom_site_occupancy
  Gd  Gd0  1  0.18927300  0.81096200  0.50020500  1
  Gd  Gd1  1  0.81172500  0.18817700  0.49996000  1
  Gd  Gd2  1  0.34766900  0.34832400  0.49975400  1
  Gd  Gd3  1  0.65118000  0.65230400  0.50033800  1
  Ni  Ni4  1  0.00097600  0.99941800  0.00003500  1
  Ni  Ni5  1  0.56876400  0.21710700  0.99929100  1
  Ni  Ni6  1  0.42959300  0.78341900  0.00045400  1
  Ni  Ni7  1  0.78283600  0.43059400  0.00031400  1
  Ni  Ni8  1  0.21645200  0.57022600  0.99983000  1
  Ni  Ni9  1  0.49896100  0.00001000  0.49994900  1
  Ni  Ni10  1  0.00054800  0.50060600  0.49999200  1
  Ni  Ni11  1  0.28941900  0.07324000  0.00065600  1
  Ni  Ni12  1  0.71036300  0.92632800  0.99915600  1
  Ni  Ni13  1  0.92740700  0.71031500  0.99985000  1
  Ni  Ni14  1  0.07384200  0.28978600  0.00018600  1
  Ni  Ni15  1  0.12220100  0.12019500  0.50036500  1
  Ni  Ni16  1  0.87990900  0.87823200  0.49952400  1
  C  C17  1  0.50002900  0.00006800  0.00001300  1
  C  C18  1  0.00000800  0.49989800  0.99998600  1
  C  C19  1  0.55532800  0.44449300  0.00024600  1
  C  C20  1  0.44351700  0.55629800  0.99989500  1
