# generated using pymatgen
data_Co3(AsO4)2
_symmetry_space_group_name_H-M   'P 1'
_cell_length_a   10.65690880
_cell_length_b   10.65690880
_cell_length_c   10.65690880
_cell_angle_alpha   141.87000115
_cell_angle_beta   141.87000115
_cell_angle_gamma   55.02466889
_symmetry_Int_Tables_number   1
_chemical_formula_structural   Co3(AsO4)2
_chemical_formula_sum   'Co9 As6 O24'
_cell_volume   458.11476438
_cell_formula_units_Z   3
loop_
 _symmetry_equiv_pos_site_id
 _symmetry_equiv_pos_as_xyz
  1  'x, y, z'
loop_
 _atom_site_type_symbol
 _atom_site_label
 _atom_site_symmetry_multiplicity
 _atom_site_fract_x
 _atom_site_fract_y
 _atom_site_fract_z
 _atom_site_occupancy
  Co  Co0  1  0.12993100  0.63012700  0.00783000  1
  Co  Co1  1  0.22559000  0.22559000  0.00000000  1
  Co  Co2  1  0.75000000  0.25000000  0.50000000  1
  Co  Co3  1  0.87790000  0.87006900  0.50019600  1
  Co  Co4  1  0.62229700  0.12210000  0.99217000  1
  Co  Co5  1  0.47850800  0.97850800  0.50000000  1
  Co  Co6  1  0.02149200  0.52149200  0.50000000  1
  Co  Co7  1  0.77441000  0.77441000  0.00000000  1
  Co  Co8  1  0.36987300  0.37770300  0.49980400  1
  As  As9  1  0.00000000  0.00000000  0.00000000  1
  As  As10  1  0.62820000  0.53170300  0.40670800  1
  As  As11  1  0.12499500  0.22149200  0.59329200  1
  As  As12  1  0.46829700  0.87500500  0.09649700  1
  As  As13  1  0.25000000  0.75000000  0.50000000  1
  As  As14  1  0.77850800  0.37180000  0.90350300  1
  O  O15  1  0.16633700  0.90245800  0.15740200  1
  O  O16  1  0.44167700  0.67637100  0.32889200  1
  O  O17  1  0.80700800  0.62387400  0.73173300  1
  O  O18  1  0.92472500  0.19299200  0.81686500  1
  O  O19  1  0.14563500  0.45562400  0.71841500  1
  O  O20  1  0.07726700  0.30808200  0.77870400  1
  O  O21  1  0.52937800  0.29856300  0.22129600  1
  O  O22  1  0.73720900  0.42722000  0.28158500  1
  O  O23  1  0.37612600  0.10786000  0.18313500  1
  O  O24  1  0.99106500  0.83366300  0.73612100  1
  O  O25  1  0.57278000  0.85436500  0.30998900  1
  O  O26  1  0.34747900  0.11278600  0.67110800  1
  O  O27  1  0.89214000  0.07527500  0.26826700  1
  O  O28  1  0.70143700  0.92273300  0.23081500  1
  O  O29  1  0.14662600  0.91763800  0.65102000  1
  O  O30  1  0.74505600  0.00893500  0.84259800  1
  O  O31  1  0.50439400  0.85337400  0.77101200  1
  O  O32  1  0.32362900  0.65252100  0.76530600  1
  O  O33  1  0.88721400  0.55832300  0.23469400  1
  O  O34  1  0.08236200  0.73338200  0.22898800  1
  O  O35  1  0.26661800  0.49560600  0.34898000  1
  O  O36  1  0.69191800  0.47062200  0.76918500  1
  O  O37  1  0.54437600  0.26279100  0.69001100  1
  O  O38  1  0.09754200  0.25494400  0.26387900  1
