# generated using pymatgen
data_Sm
_symmetry_space_group_name_H-M   'P 1'
_cell_length_a   9.04768169
_cell_length_b   9.04768169
_cell_length_c   9.04768194
_cell_angle_alpha   23.34373594
_cell_angle_beta   23.34373594
_cell_angle_gamma   23.34374114
_symmetry_Int_Tables_number   1
_chemical_formula_structural   Sm
_chemical_formula_sum   Sm3
_cell_volume   102.10259258
_cell_formula_units_Z   3
loop_
 _symmetry_equiv_pos_site_id
 _symmetry_equiv_pos_as_xyz
  1  'x, y, z'
loop_
 _atom_site_type_symbol
 _atom_site_label
 _atom_site_symmetry_multiplicity
 _atom_site_fract_x
 _atom_site_fract_y
 _atom_site_fract_z
 _atom_site_occupancy
  Sm  Sm0  1  0.00000000  0.00000000  0.00000000  1
  Sm  Sm1  1  0.22240100  0.22240100  0.22240100  1
  Sm  Sm2  1  0.77759900  0.77759900  0.77759900  1
