# generated using pymatgen
data_B6H10C2SBr
_symmetry_space_group_name_H-M   'P 1'
_cell_length_a   9.74828600
_cell_length_b   9.89191900
_cell_length_c   19.35530300
_cell_angle_alpha   90.00000000
_cell_angle_beta   90.00000000
_cell_angle_gamma   90.00000000
_symmetry_Int_Tables_number   1
_chemical_formula_structural   B6H10C2SBr
_chemical_formula_sum   'B48 H80 C16 S8 Br8'
_cell_volume   1866.41745828
_cell_formula_units_Z   8
loop_
 _symmetry_equiv_pos_site_id
 _symmetry_equiv_pos_as_xyz
  1  'x, y, z'
loop_
 _atom_site_type_symbol
 _atom_site_label
 _atom_site_symmetry_multiplicity
 _atom_site_fract_x
 _atom_site_fract_y
 _atom_site_fract_z
 _atom_site_occupancy
  B  B0  1  0.01236400  0.38852900  0.36023100  1
  B  B1  1  0.01657200  0.57245400  0.47734600  1
  B  B2  1  0.02012800  0.90047300  0.04915600  1
  B  B3  1  0.05755900  0.03883000  0.10408700  1
  B  B4  1  0.06877100  0.55151400  0.33060600  1
  B  B5  1  0.07212000  0.66432400  0.40320900  1
  B  B6  1  0.13547900  0.32680000  0.42023900  1
  B  B7  1  0.13698200  0.44112000  0.49087200  1
  B  B8  1  0.18948100  0.42020100  0.34696000  1
  B  B9  1  0.19484800  0.60189800  0.46339800  1
  B  B10  1  0.22584200  0.58931900  0.37339800  1
  B  B11  1  0.23161400  0.54935400  0.92825800  1
  B  B12  1  0.26838600  0.45064600  0.42825800  1
  B  B13  1  0.27415800  0.41068100  0.87339800  1
  B  B14  1  0.30515200  0.39810200  0.96339800  1
  B  B15  1  0.31051900  0.57979900  0.84696000  1
  B  B16  1  0.36301800  0.55888000  0.99087200  1
  B  B17  1  0.36452100  0.67320000  0.92023900  1
  B  B18  1  0.42788000  0.33567600  0.90320900  1
  B  B19  1  0.43122900  0.44848600  0.83060600  1
  B  B20  1  0.44244100  0.96117000  0.60408700  1
  B  B21  1  0.47987200  0.09952700  0.54915600  1
  B  B22  1  0.48342800  0.42754600  0.97734600  1
  B  B23  1  0.48763600  0.61147100  0.86023100  1
  B  B24  1  0.51236400  0.11147100  0.63976900  1
  B  B25  1  0.51657200  0.92754600  0.52265400  1
  B  B26  1  0.52012800  0.59952700  0.95084400  1
  B  B27  1  0.55755900  0.46117000  0.89591300  1
  B  B28  1  0.56877100  0.94848600  0.66939400  1
  B  B29  1  0.57212000  0.83567600  0.59679100  1
  B  B30  1  0.63547900  0.17320000  0.57976100  1
  B  B31  1  0.63698200  0.05888000  0.50912800  1
  B  B32  1  0.68948100  0.07979900  0.65304000  1
  B  B33  1  0.69484800  0.89810200  0.53660200  1
  B  B34  1  0.72584200  0.91068100  0.62660200  1
  B  B35  1  0.73161400  0.95064600  0.07174200  1
  B  B36  1  0.76838600  0.04935400  0.57174200  1
  B  B37  1  0.77415800  0.08931900  0.12660200  1
  B  B38  1  0.80515200  0.10189800  0.03660200  1
  B  B39  1  0.81051900  0.92020100  0.15304000  1
  B  B40  1  0.86301800  0.94112000  0.00912800  1
  B  B41  1  0.86452100  0.82680000  0.07976100  1
  B  B42  1  0.92788000  0.16432400  0.09679100  1
  B  B43  1  0.93122900  0.05151400  0.16939400  1
  B  B44  1  0.94244100  0.53883000  0.39591300  1
  B  B45  1  0.97987200  0.40047300  0.45084400  1
  B  B46  1  0.98342800  0.07245400  0.02265400  1
  B  B47  1  0.98763600  0.88852900  0.13976900  1
  H  H48  1  0.03093000  0.54085400  0.62799400  1
  H  H49  1  0.04384300  0.12791300  0.97702100  1
  H  H50  1  0.05012900  0.81319500  0.17634500  1
  H  H51  1  0.05577500  0.88028800  0.87978200  1
  H  H52  1  0.04563200  0.59102700  0.27342500  1
  H  H53  1  0.04891100  0.78254600  0.39697000  1
  H  H54  1  0.06615600  0.40583500  0.68856000  1
  H  H55  1  0.05219000  0.93805700  0.56058800  1
  H  H56  1  0.08483600  0.99080200  0.69412800  1
  H  H57  1  0.08973200  0.57469400  0.08278800  1
  H  H58  1  0.10624000  0.83381800  0.02112700  1
  H  H59  1  0.11600000  0.58302100  0.93925300  1
  H  H60  1  0.16017300  0.20881700  0.42683100  1
  H  H61  1  0.16597600  0.56763600  0.16712100  1
  H  H62  1  0.18186700  0.06177600  0.53862400  1
  H  H63  1  0.19072600  0.89223600  0.50435400  1
  H  H64  1  0.19680800  0.43279900  0.10631400  1
  H  H65  1  0.21588000  0.11488100  0.67471400  1
  H  H66  1  0.24841200  0.98323100  0.73684000  1
  H  H67  1  0.23988100  0.32491300  0.99990300  1
  H  H68  1  0.26011900  0.67508700  0.49990300  1
  H  H69  1  0.25158800  0.01676900  0.23684000  1
  H  H70  1  0.28412000  0.88511900  0.17471400  1
  H  H71  1  0.30319200  0.56720100  0.60631400  1
  H  H72  1  0.30927400  0.10776400  0.00435400  1
  H  H73  1  0.31813300  0.93822400  0.03862400  1
  H  H74  1  0.33402400  0.43236400  0.66712100  1
  H  H75  1  0.33982700  0.79118300  0.92683100  1
  H  H76  1  0.38400000  0.41697900  0.43925300  1
  H  H77  1  0.39376000  0.16618200  0.52112700  1
  H  H78  1  0.41026800  0.42530600  0.58278800  1
  H  H79  1  0.41516400  0.00919800  0.19412800  1
  H  H80  1  0.44781000  0.06194300  0.06058800  1
  H  H81  1  0.43384400  0.59416500  0.18856000  1
  H  H82  1  0.45108900  0.21745400  0.89697000  1
  H  H83  1  0.45436800  0.40897300  0.77342500  1
  H  H84  1  0.44422500  0.11971200  0.37978200  1
  H  H85  1  0.44987100  0.18680500  0.67634500  1
  H  H86  1  0.45615700  0.87208700  0.47702100  1
  H  H87  1  0.46907000  0.45914600  0.12799400  1
  H  H88  1  0.53093000  0.95914600  0.37200600  1
  H  H89  1  0.54384300  0.37208700  0.02297900  1
  H  H90  1  0.55012900  0.68680500  0.82365500  1
  H  H91  1  0.55577500  0.61971200  0.12021800  1
  H  H92  1  0.54563200  0.90897300  0.72657500  1
  H  H93  1  0.54891100  0.71745400  0.60303000  1
  H  H94  1  0.56615600  0.09416500  0.31144000  1
  H  H95  1  0.55219000  0.56194300  0.43941200  1
  H  H96  1  0.58483600  0.50919800  0.30587200  1
  H  H97  1  0.58973200  0.92530600  0.91721200  1
  H  H98  1  0.60624000  0.66618200  0.97887300  1
  H  H99  1  0.61600000  0.91697900  0.06074700  1
  H  H100  1  0.66017300  0.29118300  0.57316900  1
  H  H101  1  0.66597600  0.93236400  0.83287900  1
  H  H102  1  0.68186700  0.43822400  0.46137600  1
  H  H103  1  0.69072600  0.60776400  0.49564600  1
  H  H104  1  0.69680800  0.06720100  0.89368600  1
  H  H105  1  0.71588000  0.38511900  0.32528600  1
  H  H106  1  0.74841200  0.51676900  0.26316000  1
  H  H107  1  0.73988100  0.17508700  0.00009700  1
  H  H108  1  0.76011900  0.82491300  0.50009700  1
  H  H109  1  0.75158800  0.48323100  0.76316000  1
  H  H110  1  0.78412000  0.61488100  0.82528600  1
  H  H111  1  0.80319200  0.93279900  0.39368600  1
  H  H112  1  0.80927400  0.39223600  0.99564600  1
  H  H113  1  0.81813300  0.56177600  0.96137600  1
  H  H114  1  0.83402400  0.06763600  0.33287900  1
  H  H115  1  0.83982700  0.70881700  0.07316900  1
  H  H116  1  0.88400000  0.08302100  0.56074700  1
  H  H117  1  0.89376000  0.33381800  0.47887300  1
  H  H118  1  0.91026800  0.07469400  0.41721200  1
  H  H119  1  0.91516400  0.49080200  0.80587200  1
  H  H120  1  0.94781000  0.43805700  0.93941200  1
  H  H121  1  0.93384400  0.90583500  0.81144000  1
  H  H122  1  0.95108900  0.28254600  0.10303000  1
  H  H123  1  0.95436800  0.09102700  0.22657500  1
  H  H124  1  0.94422500  0.38028800  0.62021800  1
  H  H125  1  0.94987100  0.31319500  0.32365500  1
  H  H126  1  0.95615700  0.62791300  0.52297900  1
  H  H127  1  0.96907000  0.04085400  0.87200600  1
  C  C128  1  0.03959900  0.43153400  0.63493600  1
  C  C129  1  0.16083200  0.95508300  0.54856600  1
  C  C130  1  0.17936000  0.54122000  0.11240700  1
  C  C131  1  0.19533500  0.00994800  0.68874900  1
  C  C132  1  0.30466500  0.99005200  0.18874900  1
  C  C133  1  0.32064000  0.45878000  0.61240700  1
  C  C134  1  0.33916800  0.04491700  0.04856600  1
  C  C135  1  0.46040100  0.56846600  0.13493600  1
  C  C136  1  0.53959900  0.06846600  0.36506400  1
  C  C137  1  0.66083200  0.54491700  0.45143400  1
  C  C138  1  0.67936000  0.95878000  0.88759300  1
  C  C139  1  0.69533500  0.49005200  0.31125100  1
  C  C140  1  0.80466500  0.50994800  0.81125100  1
  C  C141  1  0.82064000  0.04122000  0.38759300  1
  C  C142  1  0.83916800  0.45508300  0.95143400  1
  C  C143  1  0.96040100  0.93153400  0.86506400  1
  S  S144  1  0.17416900  0.36672400  0.58031600  1
  S  S145  1  0.24053800  0.10103700  0.12205500  1
  S  S146  1  0.25946200  0.89896300  0.62205500  1
  S  S147  1  0.32583100  0.63327600  0.08031600  1
  S  S148  1  0.67416900  0.13327600  0.41968400  1
  S  S149  1  0.74053800  0.39896300  0.87794500  1
  S  S150  1  0.75946200  0.60103700  0.37794500  1
  S  S151  1  0.82583100  0.86672400  0.91968400  1
  Br  Br152  1  0.13259900  0.29691400  0.82650200  1
  Br  Br153  1  0.20493400  0.66868900  0.77159600  1
  Br  Br154  1  0.29506600  0.33131100  0.27159600  1
  Br  Br155  1  0.36740100  0.70308600  0.32650200  1
  Br  Br156  1  0.63259900  0.20308600  0.17349800  1
  Br  Br157  1  0.70493400  0.83131100  0.22840400  1
  Br  Br158  1  0.79506600  0.16868900  0.72840400  1
  Br  Br159  1  0.86740100  0.79691400  0.67349800  1
