# generated using pymatgen
data_U2Al3C4
_symmetry_space_group_name_H-M   'P 1'
_cell_length_a   3.39821800
_cell_length_b   3.39821800
_cell_length_c   23.33249635
_cell_angle_alpha   90.00000000
_cell_angle_beta   90.00000000
_cell_angle_gamma   119.99999996
_symmetry_Int_Tables_number   1
_chemical_formula_structural   U2Al3C4
_chemical_formula_sum   'U4 Al6 C8'
_cell_volume   233.34274947
_cell_formula_units_Z   2
loop_
 _symmetry_equiv_pos_site_id
 _symmetry_equiv_pos_as_xyz
  1  'x, y, z'
loop_
 _atom_site_type_symbol
 _atom_site_label
 _atom_site_symmetry_multiplicity
 _atom_site_fract_x
 _atom_site_fract_y
 _atom_site_fract_z
 _atom_site_occupancy
  C  C0  1  0.00000000  0.00000000  0.74846096  1
  C  C1  1  0.00000000  0.00000000  0.24846096  1
  C  C2  1  0.00000000  0.00000000  0.49848999  1
  C  C3  1  0.00000000  0.00000000  0.99848999  1
  C  C4  1  0.66666667  0.33333333  0.63319708  1
  C  C5  1  0.33333333  0.66666667  0.13319708  1
  C  C6  1  0.33333333  0.66666667  0.36560239  1
  C  C7  1  0.66666667  0.33333333  0.86560239  1
  Al  Al8  1  0.00000000  0.00000000  0.33507139  1
  Al  Al9  1  0.00000000  0.00000000  0.83507139  1
  Al  Al10  1  0.66666667  0.33333333  0.74635809  1
  Al  Al11  1  0.33333333  0.66666667  0.24635809  1
  Al  Al12  1  0.00000000  0.00000000  0.16131039  1
  Al  Al13  1  0.00000000  0.00000000  0.66131039  1
  U  U14  1  0.66666667  0.33333333  0.43594826  1
  U  U15  1  0.33333333  0.66666667  0.93594826  1
  U  U16  1  0.66666667  0.33333333  0.06095146  1
  U  U17  1  0.33333333  0.66666667  0.56095146  1
