# generated using pymatgen
data_NaMgP3(H4O5)2
_symmetry_space_group_name_H-M   'P 1'
_cell_length_a   9.14874800
_cell_length_b   14.84310200
_cell_length_c   14.96395900
_cell_angle_alpha   90.00000000
_cell_angle_beta   90.00000000
_cell_angle_gamma   90.00000000
_symmetry_Int_Tables_number   1
_chemical_formula_structural   NaMgP3(H4O5)2
_chemical_formula_sum   'Na8 Mg8 P24 H64 O80'
_cell_volume   2032.04277963
_cell_formula_units_Z   8
loop_
 _symmetry_equiv_pos_site_id
 _symmetry_equiv_pos_as_xyz
  1  'x, y, z'
loop_
 _atom_site_type_symbol
 _atom_site_label
 _atom_site_symmetry_multiplicity
 _atom_site_fract_x
 _atom_site_fract_y
 _atom_site_fract_z
 _atom_site_occupancy
  Na  Na0  1  0.56277400  0.06616000  0.34139700  1
  Na  Na1  1  0.93722600  0.06616000  0.84139700  1
  Na  Na2  1  0.06277400  0.43384000  0.34139700  1
  Na  Na3  1  0.43722600  0.43384000  0.84139700  1
  Na  Na4  1  0.56277400  0.56616000  0.15860300  1
  Na  Na5  1  0.93722600  0.56616000  0.65860300  1
  Na  Na6  1  0.06277400  0.93384000  0.15860300  1
  Na  Na7  1  0.43722600  0.93384000  0.65860300  1
  Mg  Mg8  1  0.94765900  0.04619900  0.34028100  1
  Mg  Mg9  1  0.55234100  0.04619900  0.84028100  1
  Mg  Mg10  1  0.44765900  0.45380100  0.34028100  1
  Mg  Mg11  1  0.05234100  0.45380100  0.84028100  1
  Mg  Mg12  1  0.55234100  0.54619900  0.65971900  1
  Mg  Mg13  1  0.94765900  0.54619900  0.15971900  1
  Mg  Mg14  1  0.05234100  0.95380100  0.65971900  1
  Mg  Mg15  1  0.44765900  0.95380100  0.15971900  1
  P  P16  1  0.72569700  0.00810100  0.02989500  1
  P  P17  1  0.77430300  0.00810100  0.52989500  1
  P  P18  1  0.23796700  0.11916800  0.22398300  1
  P  P19  1  0.26203300  0.11916800  0.72398300  1
  P  P20  1  0.96608800  0.23838700  0.46850400  1
  P  P21  1  0.53391200  0.23838700  0.96850400  1
  P  P22  1  0.03391200  0.26161300  0.96850400  1
  P  P23  1  0.46608800  0.26161300  0.46850400  1
  P  P24  1  0.73796700  0.38083200  0.22398300  1
  P  P25  1  0.76203300  0.38083200  0.72398300  1
  P  P26  1  0.22569700  0.49189900  0.02989500  1
  P  P27  1  0.27430300  0.49189900  0.52989500  1
  P  P28  1  0.77430300  0.50810100  0.97010500  1
  P  P29  1  0.72569700  0.50810100  0.47010500  1
  P  P30  1  0.23796700  0.61916800  0.27601700  1
  P  P31  1  0.26203300  0.61916800  0.77601700  1
  P  P32  1  0.53391200  0.73838700  0.53149600  1
  P  P33  1  0.96608800  0.73838700  0.03149600  1
  P  P34  1  0.03391200  0.76161300  0.53149600  1
  P  P35  1  0.46608800  0.76161300  0.03149600  1
  P  P36  1  0.73796700  0.88083200  0.27601700  1
  P  P37  1  0.76203300  0.88083200  0.77601700  1
  P  P38  1  0.27430300  0.99189900  0.97010500  1
  P  P39  1  0.22569700  0.99189900  0.47010500  1
  H  H40  1  0.25493900  0.08422300  0.45873200  1
  H  H41  1  0.24506100  0.08422300  0.95873200  1
  H  H42  1  0.58492600  0.10153200  0.53345400  1
  H  H43  1  0.91507400  0.10153200  0.03345400  1
  H  H44  1  0.80130300  0.10109200  0.19841600  1
  H  H45  1  0.69869700  0.10109200  0.69841600  1
  H  H46  1  0.51844900  0.14054700  0.07778800  1
  H  H47  1  0.98155100  0.14054700  0.57778800  1
  H  H48  1  0.22844300  0.16141800  0.14006400  1
  H  H49  1  0.27155700  0.16141800  0.64006400  1
  H  H50  1  0.78731800  0.18292400  0.26667200  1
  H  H51  1  0.71268200  0.18292400  0.76667200  1
  H  H52  1  0.15287800  0.19662900  0.33657800  1
  H  H53  1  0.34712200  0.19662900  0.83657800  1
  H  H54  1  0.81180000  0.23735200  0.46935700  1
  H  H55  1  0.68820000  0.23735200  0.96935700  1
  H  H56  1  0.31180000  0.26264800  0.46935700  1
  H  H57  1  0.18820000  0.26264800  0.96935700  1
  H  H58  1  0.65287800  0.30337100  0.33657800  1
  H  H59  1  0.84712200  0.30337100  0.83657800  1
  H  H60  1  0.28731800  0.31707600  0.26667200  1
  H  H61  1  0.21268200  0.31707600  0.76667200  1
  H  H62  1  0.72844300  0.33858200  0.14006400  1
  H  H63  1  0.77155700  0.33858200  0.64006400  1
  H  H64  1  0.01844900  0.35945300  0.07778800  1
  H  H65  1  0.48155100  0.35945300  0.57778800  1
  H  H66  1  0.30130300  0.39890800  0.19841600  1
  H  H67  1  0.19869700  0.39890800  0.69841600  1
  H  H68  1  0.41507400  0.39846800  0.03345400  1
  H  H69  1  0.08492600  0.39846800  0.53345400  1
  H  H70  1  0.75493900  0.41577700  0.45873200  1
  H  H71  1  0.74506100  0.41577700  0.95873200  1
  H  H72  1  0.24506100  0.58422300  0.54126800  1
  H  H73  1  0.25493900  0.58422300  0.04126800  1
  H  H74  1  0.58492600  0.60153200  0.96654600  1
  H  H75  1  0.91507400  0.60153200  0.46654600  1
  H  H76  1  0.69869700  0.60109200  0.80158400  1
  H  H77  1  0.80130300  0.60109200  0.30158400  1
  H  H78  1  0.98155100  0.64054700  0.92221200  1
  H  H79  1  0.51844900  0.64054700  0.42221200  1
  H  H80  1  0.22844300  0.66141800  0.35993600  1
  H  H81  1  0.27155700  0.66141800  0.85993600  1
  H  H82  1  0.71268200  0.68292400  0.73332800  1
  H  H83  1  0.78731800  0.68292400  0.23332800  1
  H  H84  1  0.15287800  0.69662900  0.16342200  1
  H  H85  1  0.34712200  0.69662900  0.66342200  1
  H  H86  1  0.68820000  0.73735200  0.53064300  1
  H  H87  1  0.81180000  0.73735200  0.03064300  1
  H  H88  1  0.18820000  0.76264800  0.53064300  1
  H  H89  1  0.31180000  0.76264800  0.03064300  1
  H  H90  1  0.65287800  0.80337100  0.16342200  1
  H  H91  1  0.84712200  0.80337100  0.66342200  1
  H  H92  1  0.21268200  0.81707600  0.73332800  1
  H  H93  1  0.28731800  0.81707600  0.23332800  1
  H  H94  1  0.72844300  0.83858200  0.35993600  1
  H  H95  1  0.77155700  0.83858200  0.85993600  1
  H  H96  1  0.48155100  0.85945300  0.92221200  1
  H  H97  1  0.01844900  0.85945300  0.42221200  1
  H  H98  1  0.19869700  0.89890800  0.80158400  1
  H  H99  1  0.30130300  0.89890800  0.30158400  1
  H  H100  1  0.08492600  0.89846800  0.96654600  1
  H  H101  1  0.41507400  0.89846800  0.46654600  1
  H  H102  1  0.74506100  0.91577700  0.54126800  1
  H  H103  1  0.75493900  0.91577700  0.04126800  1
  O  O104  1  0.77910200  0.03128400  0.43127900  1
  O  O105  1  0.72089800  0.03128400  0.93127900  1
  O  O106  1  0.59034200  0.03147600  0.08451900  1
  O  O107  1  0.90965800  0.03147600  0.58451900  1
  O  O108  1  0.86609800  0.05497200  0.07477000  1
  O  O109  1  0.63390200  0.05497200  0.57477000  1
  O  O110  1  0.10046000  0.06436600  0.24039300  1
  O  O111  1  0.39954000  0.06436600  0.74039300  1
  O  O112  1  0.38285800  0.06957200  0.22879200  1
  O  O113  1  0.11714200  0.06957200  0.72879200  1
  O  O114  1  0.78809700  0.11636700  0.26168700  1
  O  O115  1  0.71190300  0.11636700  0.76168700  1
  O  O116  1  0.52105900  0.16567000  0.45883400  1
  O  O117  1  0.97894100  0.16567000  0.95883400  1
  O  O118  1  0.01578500  0.17275700  0.39550000  1
  O  O119  1  0.48421500  0.17275700  0.89550000  1
  O  O120  1  0.24097200  0.20137600  0.29401200  1
  O  O121  1  0.25902800  0.20137600  0.79401200  1
  O  O122  1  0.01385200  0.20401800  0.56516200  1
  O  O123  1  0.48614800  0.20401800  0.06516200  1
  O  O124  1  0.51385200  0.29598200  0.56516200  1
  O  O125  1  0.98614800  0.29598200  0.06516200  1
  O  O126  1  0.74097200  0.29862400  0.29401200  1
  O  O127  1  0.75902800  0.29862400  0.79401200  1
  O  O128  1  0.51578500  0.32724300  0.39550000  1
  O  O129  1  0.98421500  0.32724300  0.89550000  1
  O  O130  1  0.02105900  0.33433000  0.45883400  1
  O  O131  1  0.47894100  0.33433000  0.95883400  1
  O  O132  1  0.28809700  0.38363300  0.26168700  1
  O  O133  1  0.21190300  0.38363300  0.76168700  1
  O  O134  1  0.61714200  0.43042800  0.72879200  1
  O  O135  1  0.88285800  0.43042800  0.22879200  1
  O  O136  1  0.60046000  0.43563400  0.24039300  1
  O  O137  1  0.89954000  0.43563400  0.74039300  1
  O  O138  1  0.36609800  0.44502800  0.07477000  1
  O  O139  1  0.13390200  0.44502800  0.57477000  1
  O  O140  1  0.09034200  0.46852400  0.08451900  1
  O  O141  1  0.40965800  0.46852400  0.58451900  1
  O  O142  1  0.27910200  0.46871600  0.43127900  1
  O  O143  1  0.22089800  0.46871600  0.93127900  1
  O  O144  1  0.77910200  0.53128400  0.06872100  1
  O  O145  1  0.72089800  0.53128400  0.56872100  1
  O  O146  1  0.59034200  0.53147600  0.41548100  1
  O  O147  1  0.90965800  0.53147600  0.91548100  1
  O  O148  1  0.63390200  0.55497200  0.92523000  1
  O  O149  1  0.86609800  0.55497200  0.42523000  1
  O  O150  1  0.10046000  0.56436600  0.25960700  1
  O  O151  1  0.39954000  0.56436600  0.75960700  1
  O  O152  1  0.11714200  0.56957200  0.77120800  1
  O  O153  1  0.38285800  0.56957200  0.27120800  1
  O  O154  1  0.71190300  0.61636700  0.73831300  1
  O  O155  1  0.78809700  0.61636700  0.23831300  1
  O  O156  1  0.52105900  0.66567000  0.04116600  1
  O  O157  1  0.97894100  0.66567000  0.54116600  1
  O  O158  1  0.01578500  0.67275700  0.10450000  1
  O  O159  1  0.48421500  0.67275700  0.60450000  1
  O  O160  1  0.24097200  0.70137600  0.20598800  1
  O  O161  1  0.25902800  0.70137600  0.70598800  1
  O  O162  1  0.01385200  0.70401800  0.93483800  1
  O  O163  1  0.48614800  0.70401800  0.43483800  1
  O  O164  1  0.51385200  0.79598200  0.93483800  1
  O  O165  1  0.98614800  0.79598200  0.43483800  1
  O  O166  1  0.74097200  0.79862400  0.20598800  1
  O  O167  1  0.75902800  0.79862400  0.70598800  1
  O  O168  1  0.51578500  0.82724300  0.10450000  1
  O  O169  1  0.98421500  0.82724300  0.60450000  1
  O  O170  1  0.02105900  0.83433000  0.04116600  1
  O  O171  1  0.47894100  0.83433000  0.54116600  1
  O  O172  1  0.21190300  0.88363300  0.73831300  1
  O  O173  1  0.28809700  0.88363300  0.23831300  1
  O  O174  1  0.61714200  0.93042800  0.77120800  1
  O  O175  1  0.88285800  0.93042800  0.27120800  1
  O  O176  1  0.60046000  0.93563400  0.25960700  1
  O  O177  1  0.89954000  0.93563400  0.75960700  1
  O  O178  1  0.13390200  0.94502800  0.92523000  1
  O  O179  1  0.36609800  0.94502800  0.42523000  1
  O  O180  1  0.40965800  0.96852400  0.91548100  1
  O  O181  1  0.09034200  0.96852400  0.41548100  1
  O  O182  1  0.22089800  0.96871600  0.56872100  1
  O  O183  1  0.27910200  0.96871600  0.06872100  1
