# generated using pymatgen
data_CaSiPd
_symmetry_space_group_name_H-M   'P 1'
_cell_length_a   5.76865600
_cell_length_b   5.91284700
_cell_length_c   7.80388824
_cell_angle_alpha   63.81287334
_cell_angle_beta   90.00000000
_cell_angle_gamma   90.00000000
_symmetry_Int_Tables_number   1
_chemical_formula_structural   CaSiPd
_chemical_formula_sum   'Ca4 Si4 Pd4'
_cell_volume   238.86242849
_cell_formula_units_Z   4
loop_
 _symmetry_equiv_pos_site_id
 _symmetry_equiv_pos_as_xyz
  1  'x, y, z'
loop_
 _atom_site_type_symbol
 _atom_site_label
 _atom_site_symmetry_multiplicity
 _atom_site_fract_x
 _atom_site_fract_y
 _atom_site_fract_z
 _atom_site_occupancy
  Ca  Ca0  1  0.87328400  0.79730800  0.88401700  1
  Ca  Ca1  1  0.62671600  0.79730800  0.38401700  1
  Ca  Ca2  1  0.12671600  0.20269200  0.11598300  1
  Ca  Ca3  1  0.37328400  0.20269200  0.61598300  1
  Si  Si4  1  0.38287500  0.78449600  0.04459100  1
  Si  Si5  1  0.61712500  0.21550400  0.95540900  1
  Si  Si6  1  0.88287500  0.21550400  0.45540900  1
  Si  Si7  1  0.11712500  0.78449600  0.54459100  1
  Pd  Pd8  1  0.38817300  0.61316600  0.81021400  1
  Pd  Pd9  1  0.61182700  0.38683400  0.18978600  1
  Pd  Pd10  1  0.11182700  0.61316600  0.31021400  1
  Pd  Pd11  1  0.88817300  0.38683400  0.68978600  1
