# generated using pymatgen
data_Y6Cu11O24
_symmetry_space_group_name_H-M   'P 1'
_cell_length_a   8.14865709
_cell_length_b   6.33106912
_cell_length_c   10.06342799
_cell_angle_alpha   82.21952700
_cell_angle_beta   65.95395903
_cell_angle_gamma   90.76918486
_symmetry_Int_Tables_number   1
_chemical_formula_structural   Y6Cu11O24
_chemical_formula_sum   'Y6 Cu11 O24'
_cell_volume   468.39873313
_cell_formula_units_Z   1
loop_
 _symmetry_equiv_pos_site_id
 _symmetry_equiv_pos_as_xyz
  1  'x, y, z'
loop_
 _atom_site_type_symbol
 _atom_site_label
 _atom_site_symmetry_multiplicity
 _atom_site_fract_x
 _atom_site_fract_y
 _atom_site_fract_z
 _atom_site_occupancy
  Y  Y0  1  0.87081400  0.75581100  0.00488700  1
  Y  Y1  1  0.79585200  0.91085600  0.66178000  1
  Y  Y2  1  0.54533000  0.40951300  0.65685200  1
  Y  Y3  1  0.46494800  0.58014900  0.33328700  1
  Y  Y4  1  0.20171900  0.08651800  0.33337900  1
  Y  Y5  1  0.12133700  0.25715400  0.00981500  1
  Cu  Cu6  1  0.66930800  0.17370800  0.17305900  1
  Cu  Cu7  1  0.49738700  0.99806600  0.99919800  1
  Cu  Cu8  1  0.83333300  0.33333300  0.83333300  1
  Cu  Cu9  1  0.83333300  0.83333300  0.33333300  1
  Cu  Cu10  1  0.49834100  0.00548800  0.49980300  1
  Cu  Cu11  1  0.50246400  0.49670200  0.99683700  1
  Cu  Cu12  1  0.16420300  0.16996500  0.66983000  1
  Cu  Cu13  1  0.16832500  0.66117800  0.16686400  1
  Cu  Cu14  1  0.33333300  0.83333300  0.83333300  1
  Cu  Cu15  1  0.16927900  0.66860100  0.66746800  1
  Cu  Cu16  1  0.99735800  0.49295900  0.49360800  1
  O  O17  1  0.86840000  0.01840400  0.15798000  1
  O  O18  1  0.90081100  0.03509800  0.42041800  1
  O  O19  1  0.83785000  0.36810000  0.01522500  1
  O  O20  1  0.82881700  0.29856600  0.65144100  1
  O  O21  1  0.76585600  0.63156900  0.24624900  1
  O  O22  1  0.75087000  0.03852000  0.88999300  1
  O  O23  1  0.91579700  0.62814600  0.77667400  1
  O  O24  1  0.79826700  0.64826300  0.50868700  1
  O  O25  1  0.54747600  0.29660000  0.45186800  1
  O  O26  1  0.47300300  0.32274700  0.17617200  1
  O  O27  1  0.51157600  0.03101500  0.67811000  1
  O  O28  1  0.55150000  0.72644200  0.07822900  1
  O  O29  1  0.44723500  0.26994300  0.91622400  1
  O  O30  1  0.49260500  0.97256300  0.32013600  1
  O  O31  1  0.53337100  0.67096300  0.81876600  1
  O  O32  1  0.42383600  0.70839000  0.55622200  1
  O  O33  1  0.19366400  0.34392000  0.49049500  1
  O  O34  1  0.11919000  0.37006700  0.21479900  1
  O  O35  1  0.24283100  0.95827700  0.11044500  1
  O  O36  1  0.21943100  0.39672300  0.75044300  1
  O  O37  1  0.17406200  0.69410400  0.34653100  1
  O  O38  1  0.15509000  0.63565100  0.98855700  1
  O  O39  1  0.11516700  0.94022500  0.58843800  1
  O  O40  1  0.13329600  0.99570300  0.84790100  1
