# generated using pymatgen
data_Na3CoO3
_symmetry_space_group_name_H-M   'P 1'
_cell_length_a   4.77885000
_cell_length_b   10.27864400
_cell_length_c   8.38970700
_cell_angle_alpha   89.99998760
_cell_angle_beta   89.99998118
_cell_angle_gamma   90.00000000
_symmetry_Int_Tables_number   1
_chemical_formula_structural   Na3CoO3
_chemical_formula_sum   'Na12 Co4 O12'
_cell_volume   412.10322902
_cell_formula_units_Z   4
loop_
 _symmetry_equiv_pos_site_id
 _symmetry_equiv_pos_as_xyz
  1  'x, y, z'
loop_
 _atom_site_type_symbol
 _atom_site_label
 _atom_site_symmetry_multiplicity
 _atom_site_fract_x
 _atom_site_fract_y
 _atom_site_fract_z
 _atom_site_occupancy
  Na  Na0  1  0.25000000  0.59950300  0.00000000  1
  Na  Na1  1  0.25000000  0.09949900  0.50000000  1
  Na  Na2  1  0.74999900  0.40050600  0.00000000  1
  Na  Na3  1  0.74999900  0.90049300  0.50000000  1
  Na  Na4  1  0.24999900  0.39100400  0.27531000  1
  Na  Na5  1  0.25000100  0.89098300  0.77530500  1
  Na  Na6  1  0.75000200  0.60902500  0.27531100  1
  Na  Na7  1  0.74999900  0.10898800  0.77531100  1
  Na  Na8  1  0.24999900  0.39100400  0.72468900  1
  Na  Na9  1  0.25000100  0.89098000  0.22469100  1
  Na  Na10  1  0.75000000  0.60902400  0.72469100  1
  Na  Na11  1  0.75000100  0.10898900  0.22469000  1
  Co  Co12  1  0.25000000  0.69742700  0.50000000  1
  Co  Co13  1  0.75000000  0.80257100  0.00000000  1
  Co  Co14  1  0.25000000  0.19742000  0.00000000  1
  Co  Co15  1  0.75000000  0.30258200  0.50000000  1
  O  O16  1  0.25000200  0.37177100  0.00000000  1
  O  O17  1  0.25000200  0.87176900  0.50000000  1
  O  O18  1  0.75000000  0.62823300  0.00000000  1
  O  O19  1  0.75000100  0.12822700  0.50000000  1
  O  O20  1  0.75000000  0.37662300  0.30984400  1
  O  O21  1  0.75000000  0.87666500  0.80987500  1
  O  O22  1  0.25000000  0.62333800  0.30987800  1
  O  O23  1  0.24999900  0.12337600  0.80984400  1
  O  O24  1  0.24999900  0.62333800  0.69012200  1
  O  O25  1  0.24999900  0.12337600  0.19015700  1
  O  O26  1  0.75000000  0.37662300  0.69015600  1
  O  O27  1  0.75000000  0.87666500  0.19012500  1
