# generated using pymatgen
data_B12H21C4S2I
_symmetry_space_group_name_H-M   'P 1'
_cell_length_a   14.10153000
_cell_length_b   9.83246200
_cell_length_c   13.71484383
_cell_angle_alpha   66.25672265
_cell_angle_beta   90.00000000
_cell_angle_gamma   90.00000000
_symmetry_Int_Tables_number   1
_chemical_formula_structural   B12H21C4S2I
_chemical_formula_sum   'B48 H84 C16 S8 I4'
_cell_volume   1740.64699957
_cell_formula_units_Z   4
loop_
 _symmetry_equiv_pos_site_id
 _symmetry_equiv_pos_as_xyz
  1  'x, y, z'
loop_
 _atom_site_type_symbol
 _atom_site_label
 _atom_site_symmetry_multiplicity
 _atom_site_fract_x
 _atom_site_fract_y
 _atom_site_fract_z
 _atom_site_occupancy
  B  B0  1  0.81134900  0.31401500  0.73226900  1
  B  B1  1  0.11820300  0.64732200  0.38479200  1
  B  B2  1  0.06977200  0.74900200  0.25673300  1
  B  B3  1  0.23738500  0.70895200  0.37911500  1
  B  B4  1  0.15697800  0.86653800  0.17134900  1
  B  B5  1  0.26261900  0.84171600  0.24827400  1
  B  B6  1  0.04357000  0.80439800  0.36107000  1
  B  B7  1  0.14900900  0.78023800  0.43803700  1
  B  B8  1  0.06717100  0.94046000  0.22876600  1
  B  B9  1  0.23872000  0.90043200  0.35294700  1
  B  B10  1  0.31134900  0.68598500  0.76773100  1
  B  B11  1  0.18813400  0.99861200  0.22399100  1
  B  B12  1  0.61891100  0.04256000  0.15988600  1
  B  B13  1  0.38179700  0.64732200  0.88479200  1
  B  B14  1  0.11891100  0.95744000  0.34011400  1
  B  B15  1  0.68813400  0.00138800  0.27600900  1
  B  B16  1  0.43022800  0.74900200  0.75673300  1
  B  B17  1  0.73872000  0.09956800  0.14705300  1
  B  B18  1  0.26261500  0.70895200  0.87911500  1
  B  B19  1  0.56717100  0.05954000  0.27123400  1
  B  B20  1  0.34302200  0.86653800  0.67134900  1
  B  B21  1  0.64900900  0.21976200  0.06196300  1
  B  B22  1  0.23738100  0.84171600  0.74827400  1
  B  B23  1  0.54357000  0.19560200  0.13893000  1
  B  B24  1  0.45643000  0.80439800  0.86107000  1
  B  B25  1  0.76261900  0.15828400  0.25172600  1
  B  B26  1  0.35099100  0.78023800  0.93803700  1
  B  B27  1  0.65697800  0.13346200  0.32865100  1
  B  B28  1  0.43282900  0.94046000  0.72876600  1
  B  B29  1  0.73738500  0.29104800  0.12088500  1
  B  B30  1  0.26128000  0.90043200  0.85294700  1
  B  B31  1  0.56977200  0.25099800  0.24326700  1
  B  B32  1  0.31186600  0.99861200  0.72399100  1
  B  B33  1  0.88108900  0.04256000  0.65988600  1
  B  B34  1  0.61820300  0.35267800  0.11520800  1
  B  B35  1  0.38108900  0.95744000  0.84011400  1
  B  B36  1  0.81186600  0.00138800  0.77600900  1
  B  B37  1  0.68865100  0.31401500  0.23226900  1
  B  B38  1  0.76128000  0.09956800  0.64705300  1
  B  B39  1  0.93282900  0.05954000  0.77123400  1
  B  B40  1  0.85099100  0.21976200  0.56196300  1
  B  B41  1  0.95643000  0.19560200  0.63893000  1
  B  B42  1  0.73738100  0.15828400  0.75172600  1
  B  B43  1  0.84302200  0.13346200  0.82865100  1
  B  B44  1  0.76261500  0.29104800  0.62088500  1
  B  B45  1  0.93022800  0.25099800  0.74326700  1
  B  B46  1  0.88179700  0.35267800  0.61520800  1
  B  B47  1  0.18865100  0.68598500  0.26773100  1
  H  H48  1  0.84280800  0.10450700  0.92212100  1
  H  H49  1  0.07149500  0.10084300  0.91966600  1
  H  H50  1  0.26760000  0.16910400  0.90197300  1
  H  H51  1  0.36895000  0.29180100  0.72108400  1
  H  H52  1  0.99379000  0.18865900  0.98181000  1
  H  H53  1  0.11464000  0.24659600  0.95769200  1
  H  H54  1  0.35031800  0.24689100  0.96665800  1
  H  H55  1  0.90699100  0.47640300  0.55986800  1
  H  H56  1  0.64676900  0.24666000  0.96879700  1
  H  H57  1  0.11590800  0.44408400  0.64320900  1
  H  H58  1  0.45073100  0.36496500  0.78903500  1
  H  H59  1  0.18489400  0.39758000  0.76139400  1
  H  H60  1  0.78873700  0.41154500  0.75860500  1
  H  H61  1  0.50520100  0.73820500  0.28277800  1
  H  H62  1  0.85588300  0.74795800  0.27850200  1
  H  H63  1  0.34050900  0.85271100  0.21082800  1
  H  H64  1  0.28873700  0.58845500  0.74139500  1
  H  H65  1  0.96691900  0.79408600  0.40056200  1
  H  H66  1  0.68489400  0.60242000  0.73860600  1
  H  H67  1  0.95073100  0.63503500  0.71096500  1
  H  H68  1  0.61590800  0.55591600  0.85679100  1
  H  H69  1  0.14676900  0.75334000  0.53120300  1
  H  H70  1  0.40699100  0.52359700  0.94013200  1
  H  H71  1  0.85031800  0.75310900  0.53334200  1
  H  H72  1  0.61464000  0.75340400  0.54230800  1
  H  H73  1  0.71139600  0.87684200  0.33201200  1
  H  H74  1  0.31939900  0.05357500  0.02792000  1
  H  H75  1  0.49379000  0.81134100  0.51819000  1
  H  H76  1  0.79801000  0.04580800  0.11120000  1
  H  H77  1  0.00599000  0.02175200  0.17664800  1
  H  H78  1  0.86895000  0.70819900  0.77891600  1
  H  H79  1  0.50599000  0.97824800  0.32335200  1
  H  H80  1  0.76760000  0.83089600  0.59802700  1
  H  H81  1  0.29801000  0.95419200  0.38880000  1
  H  H82  1  0.99479900  0.73820500  0.78277800  1
  H  H83  1  0.64411700  0.74795800  0.77850200  1
  H  H84  1  0.81939900  0.94642500  0.47208000  1
  H  H85  1  0.21139600  0.12315800  0.16798800  1
  H  H86  1  0.57149500  0.89915700  0.58033400  1
  H  H87  1  0.34280800  0.89549300  0.57787900  1
  H  H88  1  0.15949100  0.85271100  0.71082800  1
  H  H89  1  0.46691900  0.20591400  0.09943800  1
  H  H90  1  0.53308100  0.79408600  0.90056200  1
  H  H91  1  0.84050900  0.14728900  0.28917200  1
  H  H92  1  0.65719200  0.10450700  0.42212100  1
  H  H93  1  0.42850500  0.10084300  0.41966600  1
  H  H94  1  0.78860400  0.87684200  0.83201200  1
  H  H95  1  0.18060100  0.05357500  0.52792000  1
  H  H96  1  0.35588300  0.25204200  0.22149800  1
  H  H97  1  0.00520100  0.26179500  0.21722200  1
  H  H98  1  0.70199000  0.04580800  0.61120000  1
  H  H99  1  0.23240000  0.16910400  0.40197300  1
  H  H100  1  0.49401000  0.02175200  0.67664800  1
  H  H101  1  0.13105000  0.29180100  0.22108400  1
  H  H102  1  0.99401000  0.97824800  0.82335200  1
  H  H103  1  0.20199000  0.95419200  0.88880000  1
  H  H104  1  0.50621000  0.18865900  0.48181000  1
  H  H105  1  0.68060100  0.94642500  0.97208000  1
  H  H106  1  0.28860400  0.12315800  0.66798800  1
  H  H107  1  0.38536000  0.24659600  0.45769200  1
  H  H108  1  0.14968200  0.24689100  0.46665800  1
  H  H109  1  0.59300900  0.47640300  0.05986800  1
  H  H110  1  0.85323100  0.24666000  0.46879700  1
  H  H111  1  0.38409200  0.44408400  0.14320900  1
  H  H112  1  0.04926900  0.36496500  0.28903500  1
  H  H113  1  0.31510600  0.39758000  0.26139400  1
  H  H114  1  0.03308100  0.20591400  0.59943800  1
  H  H115  1  0.71126300  0.41154500  0.25860500  1
  H  H116  1  0.65949100  0.14728900  0.78917200  1
  H  H117  1  0.14411700  0.25204200  0.72149800  1
  H  H118  1  0.49479900  0.26179500  0.71722200  1
  H  H119  1  0.21126300  0.58845500  0.24139500  1
  H  H120  1  0.81510600  0.60242000  0.23860600  1
  H  H121  1  0.54926900  0.63503500  0.21096500  1
  H  H122  1  0.88409200  0.55591600  0.35679100  1
  H  H123  1  0.35323100  0.75334000  0.03120300  1
  H  H124  1  0.09300900  0.52359700  0.44013200  1
  H  H125  1  0.64968200  0.75310900  0.03334200  1
  H  H126  1  0.88536000  0.75340400  0.04230800  1
  H  H127  1  0.00621000  0.81134100  0.01819000  1
  H  H128  1  0.63105000  0.70819900  0.27891600  1
  H  H129  1  0.73240000  0.83089600  0.09802700  1
  H  H130  1  0.92850500  0.89915700  0.08033400  1
  H  H131  1  0.15719200  0.89549300  0.07787900  1
  C  C132  1  0.33101700  0.14880100  0.95208300  1
  C  C133  1  0.43584900  0.27321300  0.76545400  1
  C  C134  1  0.05413600  0.20410200  0.92801400  1
  C  C135  1  0.12786100  0.35947700  0.72393000  1
  C  C136  1  0.62786100  0.64052300  0.77607000  1
  C  C137  1  0.55413600  0.79589800  0.57198600  1
  C  C138  1  0.93584900  0.72678700  0.73454600  1
  C  C139  1  0.83101700  0.85119900  0.54791700  1
  C  C140  1  0.16898300  0.14880100  0.45208300  1
  C  C141  1  0.06415100  0.27321300  0.26545400  1
  C  C142  1  0.44586400  0.20410200  0.42801400  1
  C  C143  1  0.37213900  0.35947700  0.22393000  1
  C  C144  1  0.87213900  0.64052300  0.27607000  1
  C  C145  1  0.94586400  0.79589800  0.07198600  1
  C  C146  1  0.56415100  0.72678700  0.23454600  1
  C  C147  1  0.66898300  0.85119900  0.04791700  1
  S  S148  1  0.02100100  0.34464700  0.80005400  1
  S  S149  1  0.57112700  0.89473700  0.11504800  1
  S  S150  1  0.52100100  0.65535300  0.69994600  1
  S  S151  1  0.92887300  0.89473700  0.61504800  1
  S  S152  1  0.07112700  0.10526300  0.38495200  1
  S  S153  1  0.47899900  0.34464700  0.30005400  1
  S  S154  1  0.42887300  0.10526300  0.88495200  1
  S  S155  1  0.97899900  0.65535300  0.19994600  1
  I  I156  1  0.34965200  0.55760900  0.47732600  1
  I  I157  1  0.15034800  0.55760900  0.97732600  1
  I  I158  1  0.84965200  0.44239100  0.02267400  1
  I  I159  1  0.65034800  0.44239100  0.52267400  1
