# generated using pymatgen
data_PuSi3
_symmetry_space_group_name_H-M   'P 1'
_cell_length_a   5.88443508
_cell_length_b   5.88443508
_cell_length_c   4.43025500
_cell_angle_alpha   90.00000000
_cell_angle_beta   90.00000000
_cell_angle_gamma   119.99998965
_symmetry_Int_Tables_number   1
_chemical_formula_structural   PuSi3
_chemical_formula_sum   'Pu2 Si6'
_cell_volume   132.85226192
_cell_formula_units_Z   2
loop_
 _symmetry_equiv_pos_site_id
 _symmetry_equiv_pos_as_xyz
  1  'x, y, z'
loop_
 _atom_site_type_symbol
 _atom_site_label
 _atom_site_symmetry_multiplicity
 _atom_site_fract_x
 _atom_site_fract_y
 _atom_site_fract_z
 _atom_site_occupancy
  Pu  Pu0  1  0.33333300  0.66666700  0.75000000  1
  Pu  Pu1  1  0.66666700  0.33333300  0.25000000  1
  Si  Si2  1  0.14446600  0.28893100  0.25000000  1
  Si  Si3  1  0.71106900  0.85553400  0.25000000  1
  Si  Si4  1  0.14446600  0.85553400  0.25000000  1
  Si  Si5  1  0.85553400  0.71106900  0.75000000  1
  Si  Si6  1  0.28893100  0.14446600  0.75000000  1
  Si  Si7  1  0.85553400  0.14446600  0.75000000  1
