# generated using pymatgen
data_CsAgBr3
_symmetry_space_group_name_H-M   'P 1'
_cell_length_a   5.49483287
_cell_length_b   5.49782498
_cell_length_c   5.49448203
_cell_angle_alpha   89.97403738
_cell_angle_beta   89.94623280
_cell_angle_gamma   89.94686374
_symmetry_Int_Tables_number   1
_chemical_formula_structural   CsAgBr3
_chemical_formula_sum   'Cs1 Ag1 Br3'
_cell_volume   165.98610458
_cell_formula_units_Z   1
loop_
 _symmetry_equiv_pos_site_id
 _symmetry_equiv_pos_as_xyz
  1  'x, y, z'
loop_
 _atom_site_type_symbol
 _atom_site_label
 _atom_site_symmetry_multiplicity
 _atom_site_fract_x
 _atom_site_fract_y
 _atom_site_fract_z
 _atom_site_occupancy
  Cs  Cs0  1  0.99401060  0.00043091  0.00146433  1
  Ag  Ag1  1  0.48473618  0.49915960  0.49533851  1
  Br  Br2  1  0.48696364  0.99929170  0.49471543  1
  Br  Br3  1  0.98485000  0.50290210  0.50297506  1
  Br  Br4  1  0.48943558  0.49821469  0.99550567  1
