# generated using pymatgen
data_KFeSe2
_symmetry_space_group_name_H-M   'P 1'
_cell_length_a   6.90853423
_cell_length_b   6.90853423
_cell_length_c   5.61902924
_cell_angle_alpha   78.30443647
_cell_angle_beta   78.30443647
_cell_angle_gamma   116.00384083
_symmetry_Int_Tables_number   1
_chemical_formula_structural   KFeSe2
_chemical_formula_sum   'K2 Fe2 Se4'
_cell_volume   222.69978098
_cell_formula_units_Z   2
loop_
 _symmetry_equiv_pos_site_id
 _symmetry_equiv_pos_as_xyz
  1  'x, y, z'
loop_
 _atom_site_type_symbol
 _atom_site_label
 _atom_site_symmetry_multiplicity
 _atom_site_fract_x
 _atom_site_fract_y
 _atom_site_fract_z
 _atom_site_occupancy
  K  K0  1  0.36192600  0.63807400  0.25000000  1
  K  K1  1  0.63807400  0.36192600  0.75000000  1
  Fe  Fe2  1  0.99809700  0.00190300  0.25000000  1
  Fe  Fe3  1  0.00190300  0.99809700  0.75000000  1
  Se  Se4  1  0.08340900  0.30900400  0.90054400  1
  Se  Se5  1  0.69099600  0.91659100  0.59945600  1
  Se  Se6  1  0.91659100  0.69099600  0.09945600  1
  Se  Se7  1  0.30900400  0.08340900  0.40054400  1
