# generated using pymatgen
data_Ho11Ge10
_symmetry_space_group_name_H-M   'P 1'
_cell_length_a   11.26305732
_cell_length_b   11.26305732
_cell_length_c   11.26305732
_cell_angle_alpha   122.06568522
_cell_angle_beta   122.06568522
_cell_angle_gamma   86.45788050
_symmetry_Int_Tables_number   1
_chemical_formula_structural   Ho11Ge10
_chemical_formula_sum   'Ho22 Ge20'
_cell_volume   976.73163495
_cell_formula_units_Z   2
loop_
 _symmetry_equiv_pos_site_id
 _symmetry_equiv_pos_as_xyz
  1  'x, y, z'
loop_
 _atom_site_type_symbol
 _atom_site_label
 _atom_site_symmetry_multiplicity
 _atom_site_fract_x
 _atom_site_fract_y
 _atom_site_fract_z
 _atom_site_occupancy
  Ho  Ho0  1  0.80982000  0.06199500  0.25217600  1
  Ho  Ho1  1  0.80982000  0.55764400  0.74782400  1
  Ho  Ho2  1  0.06199500  0.80982000  0.25217600  1
  Ho  Ho3  1  0.55764400  0.80982000  0.74782400  1
  Ho  Ho4  1  0.19018000  0.93800500  0.74782400  1
  Ho  Ho5  1  0.19018000  0.44235600  0.25217600  1
  Ho  Ho6  1  0.93800500  0.19018000  0.74782400  1
  Ho  Ho7  1  0.44235600  0.19018000  0.25217600  1
  Ho  Ho8  1  0.17754800  0.17754800  0.35509500  1
  Ho  Ho9  1  0.82245200  0.82245200  0.64490500  1
  Ho  Ho10  1  0.17754800  0.82245200  0.00000000  1
  Ho  Ho11  1  0.82245200  0.17754800  0.00000000  1
  Ho  Ho12  1  0.66000900  0.66000900  0.00000000  1
  Ho  Ho13  1  0.33999100  0.33999100  0.00000000  1
  Ho  Ho14  1  0.60257300  0.92662400  0.32405100  1
  Ho  Ho15  1  0.60257300  0.27852200  0.67594900  1
  Ho  Ho16  1  0.92662400  0.60257300  0.32405100  1
  Ho  Ho17  1  0.27852200  0.60257300  0.67594900  1
  Ho  Ho18  1  0.39742700  0.07337600  0.67594900  1
  Ho  Ho19  1  0.39742700  0.72147800  0.32405100  1
  Ho  Ho20  1  0.07337600  0.39742700  0.67594900  1
  Ho  Ho21  1  0.72147800  0.39742700  0.32405100  1
  Ge  Ge22  1  0.36057700  0.00000000  0.36057700  1
  Ge  Ge23  1  0.63942300  0.00000000  0.63942300  1
  Ge  Ge24  1  0.00000000  0.63942300  0.63942300  1
  Ge  Ge25  1  0.00000000  0.36057700  0.36057700  1
  Ge  Ge26  1  0.88706100  0.88706100  0.00000000  1
  Ge  Ge27  1  0.11293900  0.11293900  0.00000000  1
  Ge  Ge28  1  0.37996200  0.37996200  0.75992400  1
  Ge  Ge29  1  0.62003800  0.62003800  0.24007600  1
  Ge  Ge30  1  0.37996200  0.62003800  0.00000000  1
  Ge  Ge31  1  0.62003800  0.37996200  0.00000000  1
  Ge  Ge32  1  0.75000000  0.25000000  0.50000000  1
  Ge  Ge33  1  0.25000000  0.75000000  0.50000000  1
  Ge  Ge34  1  0.89101100  0.89101100  0.41967900  1
  Ge  Ge35  1  0.47133200  0.47133200  0.58032100  1
  Ge  Ge36  1  0.89101100  0.47133200  0.00000000  1
  Ge  Ge37  1  0.47133200  0.89101100  0.00000000  1
  Ge  Ge38  1  0.10898900  0.10898900  0.58032100  1
  Ge  Ge39  1  0.52866800  0.52866800  0.41967900  1
  Ge  Ge40  1  0.10898900  0.52866800  0.00000000  1
  Ge  Ge41  1  0.52866800  0.10898900  0.00000000  1
