# generated using pymatgen
data_Rb2CoP4(HO2)8
_symmetry_space_group_name_H-M   'P 1'
_cell_length_a   7.44625625
_cell_length_b   8.69164099
_cell_length_c   12.20902843
_cell_angle_alpha   83.86981452
_cell_angle_beta   84.16726461
_cell_angle_gamma   84.34850856
_symmetry_Int_Tables_number   1
_chemical_formula_structural   Rb2CoP4(HO2)8
_chemical_formula_sum   'Rb4 Co2 P8 H16 O32'
_cell_volume   778.51190063
_cell_formula_units_Z   2
loop_
 _symmetry_equiv_pos_site_id
 _symmetry_equiv_pos_as_xyz
  1  'x, y, z'
loop_
 _atom_site_type_symbol
 _atom_site_label
 _atom_site_symmetry_multiplicity
 _atom_site_fract_x
 _atom_site_fract_y
 _atom_site_fract_z
 _atom_site_occupancy
  Rb  Rb0  1  0.71037200  0.10040100  0.69101200  1
  Rb  Rb1  1  0.71045100  0.60040600  0.19098600  1
  Rb  Rb2  1  0.28962900  0.89960200  0.30898500  1
  Rb  Rb3  1  0.28955100  0.39959300  0.80901400  1
  Co  Co4  1  0.50000200  0.99999900  0.99999900  1
  Co  Co5  1  0.50000200  0.50000000  0.49999900  1
  P  P6  1  0.25566100  0.93688600  0.79594600  1
  P  P7  1  0.25558700  0.43690600  0.29588300  1
  P  P8  1  0.74433900  0.06311300  0.20405300  1
  P  P9  1  0.74441100  0.56309600  0.70411700  1
  P  P10  1  0.20739600  0.23803900  0.50525200  1
  P  P11  1  0.20745100  0.73806300  0.00527200  1
  P  P12  1  0.79260500  0.76196300  0.49474800  1
  P  P13  1  0.79254900  0.26193700  0.99472800  1
  H  H14  1  0.02599600  0.09346200  0.86203400  1
  H  H15  1  0.02598800  0.59347600  0.36201100  1
  H  H16  1  0.97400500  0.90653700  0.13796500  1
  H  H17  1  0.97401000  0.40652500  0.63799200  1
  H  H18  1  0.70145300  0.27300200  0.38701200  1
  H  H19  1  0.70153400  0.77306900  0.88704000  1
  H  H20  1  0.29855200  0.72699500  0.61298900  1
  H  H21  1  0.29846700  0.22693000  0.11295900  1
  H  H22  1  0.26125400  0.99435400  0.58364400  1
  H  H23  1  0.26126500  0.49434100  0.08363600  1
  H  H24  1  0.73874800  0.00564700  0.41635700  1
  H  H25  1  0.73873300  0.50566000  0.91636500  1
  H  H26  1  0.83178300  0.34175700  0.46329600  1
  H  H27  1  0.83179800  0.84192700  0.96329400  1
  H  H28  1  0.16821900  0.65824100  0.53670300  1
  H  H29  1  0.16820200  0.15807200  0.03670500  1
  O  O30  1  0.71768200  0.36395300  0.42657700  1
  O  O31  1  0.71768800  0.86401700  0.92661600  1
  O  O32  1  0.28232300  0.63604100  0.57342400  1
  O  O33  1  0.28231700  0.13597900  0.07338200  1
  O  O34  1  0.06144100  0.02856700  0.79524500  1
  O  O35  1  0.06135200  0.52856800  0.29524100  1
  O  O36  1  0.93855900  0.97143400  0.20475400  1
  O  O37  1  0.93864400  0.47143100  0.70476200  1
  O  O38  1  0.31426900  0.89144400  0.68038700  1
  O  O39  1  0.31407900  0.39134800  0.18035500  1
  O  O40  1  0.68573200  0.10855400  0.31961200  1
  O  O41  1  0.68591700  0.60865400  0.81964500  1
  O  O42  1  0.38389200  0.02832500  0.84662100  1
  O  O43  1  0.38390100  0.52837000  0.34645500  1
  O  O44  1  0.61610900  0.97167500  0.15337900  1
  O  O45  1  0.61609800  0.47163300  0.65354400  1
  O  O46  1  0.23000200  0.27356300  0.37079500  1
  O  O47  1  0.23004800  0.77353300  0.87080000  1
  O  O48  1  0.77000000  0.72643700  0.62920500  1
  O  O49  1  0.76994900  0.22646700  0.12920000  1
  O  O50  1  0.01642700  0.30128500  0.54582700  1
  O  O51  1  0.01647100  0.80134800  0.04580500  1
  O  O52  1  0.98357300  0.69871500  0.45417300  1
  O  O53  1  0.98352900  0.19865200  0.95419600  1
  O  O54  1  0.22499700  0.05588600  0.50980000  1
  O  O55  1  0.22508700  0.55593500  0.00982900  1
  O  O56  1  0.77500600  0.94411500  0.49020000  1
  O  O57  1  0.77491200  0.44406500  0.99017100  1
  O  O58  1  0.36011700  0.29891700  0.55633500  1
  O  O59  1  0.36018600  0.79893600  0.05633100  1
  O  O60  1  0.63988400  0.70108700  0.44366500  1
  O  O61  1  0.63981700  0.20106400  0.94366800  1
