# generated using pymatgen
data_U3Sb4Rh3
_symmetry_space_group_name_H-M   'P 1'
_cell_length_a   8.29843728
_cell_length_b   8.29843728
_cell_length_c   8.29843728
_cell_angle_alpha   109.47122063
_cell_angle_beta   109.47122063
_cell_angle_gamma   109.47122063
_symmetry_Int_Tables_number   1
_chemical_formula_structural   U3Sb4Rh3
_chemical_formula_sum   'U6 Sb8 Rh6'
_cell_volume   439.91326496
_cell_formula_units_Z   2
loop_
 _symmetry_equiv_pos_site_id
 _symmetry_equiv_pos_as_xyz
  1  'x, y, z'
loop_
 _atom_site_type_symbol
 _atom_site_label
 _atom_site_symmetry_multiplicity
 _atom_site_fract_x
 _atom_site_fract_y
 _atom_site_fract_z
 _atom_site_occupancy
  U  U0  1  0.87499900  0.12499900  0.75000000  1
  U  U1  1  0.12499900  0.75000000  0.87499900  1
  U  U2  1  0.62500100  0.37500100  0.25000000  1
  U  U3  1  0.37500100  0.25000000  0.62500100  1
  U  U4  1  0.75000000  0.87499900  0.12499900  1
  U  U5  1  0.25000000  0.62500100  0.37500100  1
  Sb  Sb6  1  0.82479700  0.50000000  0.00000000  1
  Sb  Sb7  1  0.00000000  0.82479700  0.50000000  1
  Sb  Sb8  1  0.50000000  0.00000000  0.82479700  1
  Sb  Sb9  1  0.67520300  0.67520300  0.67520300  1
  Sb  Sb10  1  0.00000000  0.32479500  0.50000000  1
  Sb  Sb11  1  0.32479500  0.50000000  0.00000000  1
  Sb  Sb12  1  0.50000000  0.00000000  0.32479500  1
  Sb  Sb13  1  0.17520500  0.17520500  0.17520500  1
  Rh  Rh14  1  0.62499900  0.75000000  0.37499900  1
  Rh  Rh15  1  0.37499900  0.62499900  0.75000000  1
  Rh  Rh16  1  0.12500100  0.87500100  0.25000000  1
  Rh  Rh17  1  0.87500100  0.25000000  0.12500100  1
  Rh  Rh18  1  0.75000000  0.37499900  0.62499900  1
  Rh  Rh19  1  0.25000000  0.12500100  0.87500100  1
