# generated using pymatgen
data_RbAgBr3
_symmetry_space_group_name_H-M   'P 1'
_cell_length_a   5.44547102
_cell_length_b   5.44817688
_cell_length_c   5.44716971
_cell_angle_alpha   90.16348164
_cell_angle_beta   90.09041233
_cell_angle_gamma   90.00256879
_symmetry_Int_Tables_number   1
_chemical_formula_structural   RbAgBr3
_chemical_formula_sum   'Rb1 Ag1 Br3'
_cell_volume   161.60516885
_cell_formula_units_Z   1
loop_
 _symmetry_equiv_pos_site_id
 _symmetry_equiv_pos_as_xyz
  1  'x, y, z'
loop_
 _atom_site_type_symbol
 _atom_site_label
 _atom_site_symmetry_multiplicity
 _atom_site_fract_x
 _atom_site_fract_y
 _atom_site_fract_z
 _atom_site_occupancy
  Rb  Rb0  1  0.99989124  0.00120526  0.99707052  1
  Ag  Ag1  1  0.49878915  0.49450601  0.48387131  1
  Br  Br2  1  0.99898133  0.49368984  0.48576284  1
  Br  Br3  1  0.50466671  0.50571576  0.98422108  1
  Br  Br4  1  0.49767457  0.99488513  0.48907426  1
