# generated using pymatgen
data_Rb(TeMo)3
_symmetry_space_group_name_H-M   'P 1'
_cell_length_a   10.01834724
_cell_length_b   10.01834724
_cell_length_c   4.62852100
_cell_angle_alpha   90.00000000
_cell_angle_beta   90.00000000
_cell_angle_gamma   119.99999501
_symmetry_Int_Tables_number   1
_chemical_formula_structural   Rb(TeMo)3
_chemical_formula_sum   'Rb2 Te6 Mo6'
_cell_volume   402.31391441
_cell_formula_units_Z   2
loop_
 _symmetry_equiv_pos_site_id
 _symmetry_equiv_pos_as_xyz
  1  'x, y, z'
loop_
 _atom_site_type_symbol
 _atom_site_label
 _atom_site_symmetry_multiplicity
 _atom_site_fract_x
 _atom_site_fract_y
 _atom_site_fract_z
 _atom_site_occupancy
  Rb  Rb0  1  0.33333300  0.66666700  0.25000000  1
  Rb  Rb1  1  0.66666700  0.33333300  0.75000000  1
  Te  Te2  1  0.34867300  0.04959700  0.25000000  1
  Te  Te3  1  0.95040300  0.29907700  0.25000000  1
  Te  Te4  1  0.70092300  0.65132700  0.25000000  1
  Te  Te5  1  0.65132700  0.95040300  0.75000000  1
  Te  Te6  1  0.29907700  0.34867300  0.75000000  1
  Te  Te7  1  0.04959700  0.70092300  0.75000000  1
  Mo  Mo8  1  0.83600000  0.97634200  0.25000000  1
  Mo  Mo9  1  0.14034200  0.16400000  0.25000000  1
  Mo  Mo10  1  0.02365800  0.85965800  0.25000000  1
  Mo  Mo11  1  0.16400000  0.02365800  0.75000000  1
  Mo  Mo12  1  0.97634200  0.14034200  0.75000000  1
  Mo  Mo13  1  0.85965800  0.83600000  0.75000000  1
