# generated using pymatgen
data_Si3MoPt2
_symmetry_space_group_name_H-M   'P 1'
_cell_length_a   3.51072400
_cell_length_b   5.53766700
_cell_length_c   9.25055200
_cell_angle_alpha   90.00000000
_cell_angle_beta   90.00000000
_cell_angle_gamma   90.00000000
_symmetry_Int_Tables_number   1
_chemical_formula_structural   Si3MoPt2
_chemical_formula_sum   'Si6 Mo2 Pt4'
_cell_volume   179.84202063
_cell_formula_units_Z   2
loop_
 _symmetry_equiv_pos_site_id
 _symmetry_equiv_pos_as_xyz
  1  'x, y, z'
loop_
 _atom_site_type_symbol
 _atom_site_label
 _atom_site_symmetry_multiplicity
 _atom_site_fract_x
 _atom_site_fract_y
 _atom_site_fract_z
 _atom_site_occupancy
  Si  Si0  1  0.50000000  0.17245000  0.43522900  1
  Si  Si1  1  0.50000000  0.18399600  0.77748900  1
  Si  Si2  1  0.00000000  0.34448400  0.12698400  1
  Si  Si3  1  0.50000000  0.67245000  0.56477100  1
  Si  Si4  1  0.50000000  0.68399600  0.22251100  1
  Si  Si5  1  0.00000000  0.84448400  0.87301600  1
  Mo  Mo6  1  0.00000000  0.99962600  0.60530700  1
  Mo  Mo7  1  0.00000000  0.49962600  0.39469300  1
  Pt  Pt8  1  0.00000000  0.99979400  0.28578800  1
  Pt  Pt9  1  0.50000000  0.00095100  0.02982500  1
  Pt  Pt10  1  0.00000000  0.49979400  0.71421200  1
  Pt  Pt11  1  0.50000000  0.50095100  0.97017500  1
