# generated using pymatgen
data_Ba2ZnCr2CuF14
_symmetry_space_group_name_H-M   'P 1'
_cell_length_a   7.57204369
_cell_length_b   7.57204369
_cell_length_c   14.73557378
_cell_angle_alpha   88.55478888
_cell_angle_beta   88.55478888
_cell_angle_gamma   41.08645701
_symmetry_Int_Tables_number   1
_chemical_formula_structural   Ba2ZnCr2CuF14
_chemical_formula_sum   'Ba4 Zn2 Cr4 Cu2 F28'
_cell_volume   555.04901277
_cell_formula_units_Z   2
loop_
 _symmetry_equiv_pos_site_id
 _symmetry_equiv_pos_as_xyz
  1  'x, y, z'
loop_
 _atom_site_type_symbol
 _atom_site_label
 _atom_site_symmetry_multiplicity
 _atom_site_fract_x
 _atom_site_fract_y
 _atom_site_fract_z
 _atom_site_occupancy
  Ba  Ba0  1  0.74093800  0.88690500  0.62377800  1
  Ba  Ba1  1  0.88690500  0.74093800  0.12377800  1
  Ba  Ba2  1  0.25906200  0.11309500  0.37622200  1
  Ba  Ba3  1  0.11309500  0.25906200  0.87622200  1
  Zn  Zn4  1  0.43202200  0.56797800  0.75000000  1
  Zn  Zn5  1  0.56797800  0.43202200  0.25000000  1
  Cr  Cr6  1  0.86160000  0.89986000  0.87358500  1
  Cr  Cr7  1  0.13840000  0.10014000  0.12641500  1
  Cr  Cr8  1  0.89986000  0.86160000  0.37358500  1
  Cr  Cr9  1  0.10014000  0.13840000  0.62641500  1
  Cu  Cu10  1  0.50000000  0.50000000  0.00000000  1
  Cu  Cu11  1  0.50000000  0.50000000  0.50000000  1
  F  F12  1  0.90649500  0.10596600  0.33912700  1
  F  F13  1  0.59484500  0.13051000  0.45487200  1
  F  F14  1  0.40515500  0.86949000  0.54512800  1
  F  F15  1  0.15211800  0.34766600  0.59617100  1
  F  F16  1  0.51240300  0.39271900  0.62204000  1
  F  F17  1  0.60728100  0.48759700  0.87796000  1
  F  F18  1  0.13051000  0.59484500  0.95487200  1
  F  F19  1  0.89403400  0.09350500  0.16087300  1
  F  F20  1  0.03154700  0.64221800  0.77721700  1
  F  F21  1  0.84788200  0.65233400  0.40382900  1
  F  F22  1  0.58098100  0.19384100  0.78932900  1
  F  F23  1  0.65233400  0.84788200  0.90382900  1
  F  F24  1  0.19384100  0.58098100  0.28932900  1
  F  F25  1  0.41901900  0.80615900  0.21067100  1
  F  F26  1  0.39271900  0.51240300  0.12204000  1
  F  F27  1  0.96845300  0.35778200  0.22278300  1
  F  F28  1  0.28434600  0.87851700  0.01749900  1
  F  F29  1  0.09350500  0.89403400  0.66087300  1
  F  F30  1  0.71565400  0.12148300  0.98250100  1
  F  F31  1  0.87851700  0.28434600  0.51749900  1
  F  F32  1  0.86949000  0.40515500  0.04512800  1
  F  F33  1  0.80615900  0.41901900  0.71067100  1
  F  F34  1  0.64221800  0.03154700  0.27721700  1
  F  F35  1  0.12148300  0.71565400  0.48250100  1
  F  F36  1  0.48759700  0.60728100  0.37796000  1
  F  F37  1  0.10596600  0.90649500  0.83912700  1
  F  F38  1  0.35778200  0.96845300  0.72278300  1
  F  F39  1  0.34766600  0.15211800  0.09617100  1
