# generated using pymatgen
data_Ba2Mn2F11
_symmetry_space_group_name_H-M   'P 1'
_cell_length_a   7.73605958
_cell_length_b   7.73605958
_cell_length_c   14.08752300
_cell_angle_alpha   90.00000000
_cell_angle_beta   90.00000000
_cell_angle_gamma   119.99999641
_symmetry_Int_Tables_number   1
_chemical_formula_structural   Ba2Mn2F11
_chemical_formula_sum   'Ba6 Mn6 F33'
_cell_volume   730.13790810
_cell_formula_units_Z   3
loop_
 _symmetry_equiv_pos_site_id
 _symmetry_equiv_pos_as_xyz
  1  'x, y, z'
loop_
 _atom_site_type_symbol
 _atom_site_label
 _atom_site_symmetry_multiplicity
 _atom_site_fract_x
 _atom_site_fract_y
 _atom_site_fract_z
 _atom_site_occupancy
  Ba  Ba0  1  0.53848500  0.16395600  0.66284600  1
  Ba  Ba1  1  0.14944800  0.41349600  0.81548300  1
  Ba  Ba2  1  0.62547000  0.46151500  0.99617900  1
  Ba  Ba3  1  0.58650400  0.73595200  0.48214900  1
  Ba  Ba4  1  0.26404800  0.85055200  0.14881600  1
  Ba  Ba5  1  0.83604400  0.37453000  0.32951200  1
  Mn  Mn6  1  0.54024600  0.96091100  0.90689300  1
  Mn  Mn7  1  0.85008000  0.80434200  0.72207500  1
  Mn  Mn8  1  0.19565800  0.04573800  0.38874200  1
  Mn  Mn9  1  0.42066500  0.45975400  0.24022600  1
  Mn  Mn10  1  0.95426200  0.14992000  0.05540800  1
  Mn  Mn11  1  0.03908900  0.57933500  0.57356000  1
  F  F12  1  0.67752300  0.04613500  0.03113100  1
  F  F13  1  0.44059800  0.69722600  0.94559700  1
  F  F14  1  0.36861200  0.32247700  0.36446400  1
  F  F15  1  0.13503300  0.51591800  0.46713900  1
  F  F16  1  0.52193600  0.30076300  0.19134800  1
  F  F17  1  0.92590300  0.57739300  0.17617300  1
  F  F18  1  0.48408200  0.61911500  0.13380600  1
  F  F19  1  0.42260700  0.34851000  0.84284000  1
  F  F20  1  0.77882700  0.47806400  0.52468200  1
  F  F21  1  0.21926300  0.25588900  0.07939800  1
  F  F22  1  0.38088500  0.86496700  0.80047300  1
  F  F23  1  0.95386500  0.63138800  0.69779700  1
  F  F24  1  0.35958500  0.02409200  0.98458100  1
  F  F25  1  0.99642600  0.39997500  0.01430100  1
  F  F26  1  0.66450700  0.64041500  0.31791400  1
  F  F27  1  0.30277400  0.74337200  0.61226400  1
  F  F28  1  0.97568100  0.10122700  0.92993500  1
  F  F29  1  0.03662600  0.78073700  0.41273100  1
  F  F30  1  0.99099500  0.09170700  0.41447600  1
  F  F31  1  0.97590800  0.33549300  0.65124800  1
  F  F32  1  0.10071200  0.00900500  0.74780900  1
  F  F33  1  0.60002500  0.59645100  0.68096800  1
  F  F34  1  0.40354900  0.00357400  0.34763400  1
  F  F35  1  0.12554500  0.02431900  0.26326800  1
  F  F36  1  0.74411100  0.96337400  0.74606500  1
  F  F37  1  0.69923700  0.22117300  0.85801500  1
  F  F38  1  0.25662800  0.55940200  0.27893000  1
  F  F39  1  0.81143000  0.71106800  0.84469300  1
  F  F40  1  0.89963800  0.18857000  0.17802600  1
  F  F41  1  0.90829300  0.89928800  0.08114300  1
  F  F42  1  0.65149000  0.07409700  0.50950700  1
  F  F43  1  0.89877300  0.87445500  0.59660200  1
  F  F44  1  0.28893200  0.10036200  0.51135900  1
