# generated using pymatgen
data_Ca3Co3(AsO4)4
_symmetry_space_group_name_H-M   'P 1'
_cell_length_a   5.16980000
_cell_length_b   9.24605000
_cell_length_c   17.27190107
_cell_angle_alpha   62.99223712
_cell_angle_beta   90.00000000
_cell_angle_gamma   90.00000000
_symmetry_Int_Tables_number   1
_chemical_formula_structural   Ca3Co3(AsO4)4
_chemical_formula_sum   'Ca6 Co6 As8 O32'
_cell_volume   735.56493759
_cell_formula_units_Z   2
loop_
 _symmetry_equiv_pos_site_id
 _symmetry_equiv_pos_as_xyz
  1  'x, y, z'
loop_
 _atom_site_type_symbol
 _atom_site_label
 _atom_site_symmetry_multiplicity
 _atom_site_fract_x
 _atom_site_fract_y
 _atom_site_fract_z
 _atom_site_occupancy
  Ca  Ca0  1  0.53737900  0.30959000  0.23146400  1
  Ca  Ca1  1  0.03737900  0.69041000  0.26853600  1
  Ca  Ca2  1  0.46262100  0.69041000  0.76853600  1
  Ca  Ca3  1  0.96262100  0.30959000  0.73146400  1
  Ca  Ca4  1  0.50000000  0.00000000  0.50000000  1
  Ca  Ca5  1  0.00000000  0.00000000  0.00000000  1
  Co  Co6  1  0.47672900  0.20065000  0.62192800  1
  Co  Co7  1  0.52327100  0.79935000  0.37807200  1
  Co  Co8  1  0.97672900  0.79935000  0.87807200  1
  Co  Co9  1  0.02327100  0.20065000  0.12192800  1
  Co  Co10  1  0.00000000  0.50000000  0.50000000  1
  Co  Co11  1  0.50000000  0.50000000  0.00000000  1
  As  As12  1  0.00887400  0.03824600  0.34226800  1
  As  As13  1  0.49025800  0.43591100  0.40422400  1
  As  As14  1  0.99025800  0.56408900  0.09577600  1
  As  As15  1  0.00974200  0.43591100  0.90422400  1
  As  As16  1  0.99112600  0.96175400  0.65773200  1
  As  As17  1  0.50974200  0.56408900  0.59577600  1
  As  As18  1  0.49112600  0.03824600  0.84226800  1
  As  As19  1  0.50887400  0.96175400  0.15773200  1
  O  O20  1  0.44618800  0.81199300  0.26275300  1
  O  O21  1  0.94705400  0.74758300  0.00629700  1
  O  O22  1  0.38400400  0.43676500  0.31148200  1
  O  O23  1  0.40429200  0.14735400  0.14849800  1
  O  O24  1  0.61599600  0.56323500  0.68851800  1
  O  O25  1  0.05381200  0.81199300  0.76275300  1
  O  O26  1  0.88400400  0.56323500  0.18851800  1
  O  O27  1  0.69906100  0.51136600  0.89607800  1
  O  O28  1  0.65523900  0.10152500  0.90583700  1
  O  O29  1  0.55381200  0.18800700  0.73724700  1
  O  O30  1  0.09570800  0.14735400  0.64849800  1
  O  O31  1  0.30093900  0.48863400  0.10392200  1
  O  O32  1  0.29877400  0.57860900  0.41933900  1
  O  O33  1  0.34476100  0.89847500  0.09416300  1
  O  O34  1  0.65759900  0.97135100  0.64205700  1
  O  O35  1  0.15759900  0.02864900  0.85794300  1
  O  O36  1  0.79877400  0.42139100  0.08066100  1
  O  O37  1  0.11599600  0.43676500  0.81148200  1
  O  O38  1  0.15523900  0.89847500  0.59416300  1
  O  O39  1  0.19906100  0.48863400  0.60392200  1
  O  O40  1  0.84240100  0.97135100  0.14205700  1
  O  O41  1  0.34240100  0.02864900  0.35794300  1
  O  O42  1  0.05294600  0.25241700  0.99370300  1
  O  O43  1  0.44705400  0.25241700  0.49370300  1
  O  O44  1  0.70122600  0.42139100  0.58066100  1
  O  O45  1  0.94618800  0.18800700  0.23724700  1
  O  O46  1  0.59570800  0.85264600  0.85150200  1
  O  O47  1  0.84476100  0.10152500  0.40583700  1
  O  O48  1  0.55294600  0.74758300  0.50629700  1
  O  O49  1  0.80093900  0.51136600  0.39607800  1
  O  O50  1  0.20122600  0.57860900  0.91933900  1
  O  O51  1  0.90429200  0.85264600  0.35150200  1
